* NGSPICE file created from user_analog_project_wrapper.ext - technology: sky130A

.subckt sky130_fd_pr__pfet_01v8_lvt_79GNHJ a_4558_n3000# a_n1500_n3097# a_n4616_n3000#
+ a_1558_n3097# a_1500_n3000# w_n4754_n3219# a_n4558_n3097# a_n1558_n3000#
X0 a_1500_n3000# a_n1500_n3097# a_n1558_n3000# w_n4754_n3219# sky130_fd_pr__pfet_01v8_lvt ad=4.35 pd=30.3 as=4.35 ps=30.3 w=30 l=15
X1 a_4558_n3000# a_1558_n3097# a_1500_n3000# w_n4754_n3219# sky130_fd_pr__pfet_01v8_lvt ad=8.7 pd=60.6 as=4.35 ps=30.3 w=30 l=15
X2 a_n1558_n3000# a_n4558_n3097# a_n4616_n3000# w_n4754_n3219# sky130_fd_pr__pfet_01v8_lvt ad=4.35 pd=30.3 as=8.7 ps=60.6 w=30 l=15
.ends

.subckt sky130_fd_pr__pfet_01v8_lvt_RM6ABE a_300_n3000# w_n1154_n3219# a_n958_n3097#
+ a_n358_n3000# a_958_n3000# a_n1016_n3000# a_n300_n3097# a_358_n3097#
X0 a_n358_n3000# a_n958_n3097# a_n1016_n3000# w_n1154_n3219# sky130_fd_pr__pfet_01v8_lvt ad=4.35 pd=30.3 as=8.7 ps=60.6 w=30 l=3
X1 a_300_n3000# a_n300_n3097# a_n358_n3000# w_n1154_n3219# sky130_fd_pr__pfet_01v8_lvt ad=4.35 pd=30.3 as=4.35 ps=30.3 w=30 l=3
X2 a_958_n3000# a_358_n3097# a_300_n3000# w_n1154_n3219# sky130_fd_pr__pfet_01v8_lvt ad=8.7 pd=60.6 as=4.35 ps=30.3 w=30 l=3
.ends

.subckt sky130_fd_pr__nfet_01v8_lvt_9U978C a_n3087_n1000# a_3029_n1000# a_29_n1088#
+ a_n3189_n1174# a_n3029_n1088# a_n29_n1000#
X0 a_n29_n1000# a_n3029_n1088# a_n3087_n1000# a_n3189_n1174# sky130_fd_pr__nfet_01v8_lvt ad=1.45 pd=10.3 as=2.9 ps=20.6 w=10 l=15
X1 a_3029_n1000# a_29_n1088# a_n29_n1000# a_n3189_n1174# sky130_fd_pr__nfet_01v8_lvt ad=2.9 pd=20.6 as=1.45 ps=10.3 w=10 l=15
.ends

.subckt sky130_fd_pr__nfet_01v8_lvt_RM3WAQ a_12536_n2374# a_n1108_n2374# a_11778_n2374#
+ a_1924_n2374# a_n7930_n2374# a_n408_n2286# a_11020_n2374# a_n6414_n2374# a_10262_n2374#
+ a_n5656_n2374# a_11720_n2286# a_10962_n2286# a_n4898_n2374# a_10204_n2286# a_5714_n2374#
+ a_4956_n2374# a_n4140_n2374# a_n3382_n2374# a_n8688_n2374# a_n9446_n2374# a_9504_n2374#
+ a_3440_n2374# a_2682_n2374# a_13236_n2286# a_8746_n2374# a_12478_n2286# a_2624_n2286#
+ a_7988_n2374# a_1166_n2374# a_n7172_n2374# a_1866_n2286# a_1108_n2286# a_7230_n2374#
+ a_6472_n2374# a_7930_n2286# a_6414_n2286# a_5656_n2286# a_4198_n2374# a_4898_n2286#
+ a_408_n2374# a_4140_n2286# a_n1924_n2286# a_n12536_n2286# a_n350_n2374# a_9446_n2286#
+ a_3382_n2286# a_n11778_n2286# a_8688_n2286# a_n11020_n2286# a_n10262_n2286# a_7172_n2286#
+ a_n5714_n2286# a_n4956_n2286# a_n3440_n2286# a_n13294_n2286# a_n11720_n2374# a_n2682_n2286#
+ a_n9504_n2286# a_n10204_n2374# a_n10962_n2374# a_n13396_n2460# a_n1166_n2286# a_n7988_n2286#
+ a_n8746_n2286# a_350_n2286# a_n7230_n2286# a_n6472_n2286# a_n2624_n2374# a_n13236_n2374#
+ a_n4198_n2286# a_n1866_n2374# a_n12478_n2374#
X0 a_n11778_n2286# a_n12478_n2374# a_n12536_n2286# a_n13396_n2460# sky130_fd_pr__nfet_01v8_lvt ad=3.31 pd=23.1 as=3.31 ps=23.1 w=22.9 l=3.5
X1 a_n8746_n2286# a_n9446_n2374# a_n9504_n2286# a_n13396_n2460# sky130_fd_pr__nfet_01v8_lvt ad=3.31 pd=23.1 as=3.31 ps=23.1 w=22.9 l=3.5
X2 a_350_n2286# a_n350_n2374# a_n408_n2286# a_n13396_n2460# sky130_fd_pr__nfet_01v8_lvt ad=3.31 pd=23.1 as=3.31 ps=23.1 w=22.9 l=3.5
X3 a_10204_n2286# a_9504_n2374# a_9446_n2286# a_n13396_n2460# sky130_fd_pr__nfet_01v8_lvt ad=3.31 pd=23.1 as=3.31 ps=23.1 w=22.9 l=3.5
X4 a_n1924_n2286# a_n2624_n2374# a_n2682_n2286# a_n13396_n2460# sky130_fd_pr__nfet_01v8_lvt ad=3.31 pd=23.1 as=3.31 ps=23.1 w=22.9 l=3.5
X5 a_7172_n2286# a_6472_n2374# a_6414_n2286# a_n13396_n2460# sky130_fd_pr__nfet_01v8_lvt ad=3.31 pd=23.1 as=3.31 ps=23.1 w=22.9 l=3.5
X6 a_4898_n2286# a_4198_n2374# a_4140_n2286# a_n13396_n2460# sky130_fd_pr__nfet_01v8_lvt ad=3.31 pd=23.1 as=3.31 ps=23.1 w=22.9 l=3.5
X7 a_12478_n2286# a_11778_n2374# a_11720_n2286# a_n13396_n2460# sky130_fd_pr__nfet_01v8_lvt ad=3.31 pd=23.1 as=3.31 ps=23.1 w=22.9 l=3.5
X8 a_n9504_n2286# a_n10204_n2374# a_n10262_n2286# a_n13396_n2460# sky130_fd_pr__nfet_01v8_lvt ad=3.31 pd=23.1 as=3.31 ps=23.1 w=22.9 l=3.5
X9 a_1108_n2286# a_408_n2374# a_350_n2286# a_n13396_n2460# sky130_fd_pr__nfet_01v8_lvt ad=3.31 pd=23.1 as=3.31 ps=23.1 w=22.9 l=3.5
X10 a_n7988_n2286# a_n8688_n2374# a_n8746_n2286# a_n13396_n2460# sky130_fd_pr__nfet_01v8_lvt ad=3.31 pd=23.1 as=3.31 ps=23.1 w=22.9 l=3.5
X11 a_9446_n2286# a_8746_n2374# a_8688_n2286# a_n13396_n2460# sky130_fd_pr__nfet_01v8_lvt ad=3.31 pd=23.1 as=3.31 ps=23.1 w=22.9 l=3.5
X12 a_n1166_n2286# a_n1866_n2374# a_n1924_n2286# a_n13396_n2460# sky130_fd_pr__nfet_01v8_lvt ad=3.31 pd=23.1 as=3.31 ps=23.1 w=22.9 l=3.5
X13 a_11720_n2286# a_11020_n2374# a_10962_n2286# a_n13396_n2460# sky130_fd_pr__nfet_01v8_lvt ad=3.31 pd=23.1 as=3.31 ps=23.1 w=22.9 l=3.5
X14 a_2624_n2286# a_1924_n2374# a_1866_n2286# a_n13396_n2460# sky130_fd_pr__nfet_01v8_lvt ad=3.31 pd=23.1 as=3.31 ps=23.1 w=22.9 l=3.5
X15 a_n5714_n2286# a_n6414_n2374# a_n6472_n2286# a_n13396_n2460# sky130_fd_pr__nfet_01v8_lvt ad=3.31 pd=23.1 as=3.31 ps=23.1 w=22.9 l=3.5
X16 a_n3440_n2286# a_n4140_n2374# a_n4198_n2286# a_n13396_n2460# sky130_fd_pr__nfet_01v8_lvt ad=3.31 pd=23.1 as=3.31 ps=23.1 w=22.9 l=3.5
X17 a_n2682_n2286# a_n3382_n2374# a_n3440_n2286# a_n13396_n2460# sky130_fd_pr__nfet_01v8_lvt ad=3.31 pd=23.1 as=3.31 ps=23.1 w=22.9 l=3.5
X18 a_4140_n2286# a_3440_n2374# a_3382_n2286# a_n13396_n2460# sky130_fd_pr__nfet_01v8_lvt ad=3.31 pd=23.1 as=3.31 ps=23.1 w=22.9 l=3.5
X19 a_1866_n2286# a_1166_n2374# a_1108_n2286# a_n13396_n2460# sky130_fd_pr__nfet_01v8_lvt ad=3.31 pd=23.1 as=3.31 ps=23.1 w=22.9 l=3.5
X20 a_8688_n2286# a_7988_n2374# a_7930_n2286# a_n13396_n2460# sky130_fd_pr__nfet_01v8_lvt ad=3.31 pd=23.1 as=3.31 ps=23.1 w=22.9 l=3.5
X21 a_10962_n2286# a_10262_n2374# a_10204_n2286# a_n13396_n2460# sky130_fd_pr__nfet_01v8_lvt ad=3.31 pd=23.1 as=3.31 ps=23.1 w=22.9 l=3.5
X22 a_n11020_n2286# a_n11720_n2374# a_n11778_n2286# a_n13396_n2460# sky130_fd_pr__nfet_01v8_lvt ad=3.31 pd=23.1 as=3.31 ps=23.1 w=22.9 l=3.5
X23 a_n10262_n2286# a_n10962_n2374# a_n11020_n2286# a_n13396_n2460# sky130_fd_pr__nfet_01v8_lvt ad=3.31 pd=23.1 as=3.31 ps=23.1 w=22.9 l=3.5
X24 a_n4956_n2286# a_n5656_n2374# a_n5714_n2286# a_n13396_n2460# sky130_fd_pr__nfet_01v8_lvt ad=3.31 pd=23.1 as=3.31 ps=23.1 w=22.9 l=3.5
X25 a_6414_n2286# a_5714_n2374# a_5656_n2286# a_n13396_n2460# sky130_fd_pr__nfet_01v8_lvt ad=3.31 pd=23.1 as=3.31 ps=23.1 w=22.9 l=3.5
X26 a_n12536_n2286# a_n13236_n2374# a_n13294_n2286# a_n13396_n2460# sky130_fd_pr__nfet_01v8_lvt ad=3.31 pd=23.1 as=6.63 ps=46.3 w=22.9 l=3.5
X27 a_3382_n2286# a_2682_n2374# a_2624_n2286# a_n13396_n2460# sky130_fd_pr__nfet_01v8_lvt ad=3.31 pd=23.1 as=3.31 ps=23.1 w=22.9 l=3.5
X28 a_n6472_n2286# a_n7172_n2374# a_n7230_n2286# a_n13396_n2460# sky130_fd_pr__nfet_01v8_lvt ad=3.31 pd=23.1 as=3.31 ps=23.1 w=22.9 l=3.5
X29 a_7930_n2286# a_7230_n2374# a_7172_n2286# a_n13396_n2460# sky130_fd_pr__nfet_01v8_lvt ad=3.31 pd=23.1 as=3.31 ps=23.1 w=22.9 l=3.5
X30 a_n408_n2286# a_n1108_n2374# a_n1166_n2286# a_n13396_n2460# sky130_fd_pr__nfet_01v8_lvt ad=3.31 pd=23.1 as=3.31 ps=23.1 w=22.9 l=3.5
X31 a_13236_n2286# a_12536_n2374# a_12478_n2286# a_n13396_n2460# sky130_fd_pr__nfet_01v8_lvt ad=6.63 pd=46.3 as=3.31 ps=23.1 w=22.9 l=3.5
X32 a_n7230_n2286# a_n7930_n2374# a_n7988_n2286# a_n13396_n2460# sky130_fd_pr__nfet_01v8_lvt ad=3.31 pd=23.1 as=3.31 ps=23.1 w=22.9 l=3.5
X33 a_n4198_n2286# a_n4898_n2374# a_n4956_n2286# a_n13396_n2460# sky130_fd_pr__nfet_01v8_lvt ad=3.31 pd=23.1 as=3.31 ps=23.1 w=22.9 l=3.5
X34 a_5656_n2286# a_4956_n2374# a_4898_n2286# a_n13396_n2460# sky130_fd_pr__nfet_01v8_lvt ad=3.31 pd=23.1 as=3.31 ps=23.1 w=22.9 l=3.5
.ends

.subckt diffamp PCAS REF PIX GM_BIAS VDD VSS OUT
XXM1 m1_35096_n15744# m1_32048_n23188# VDD m1_32048_n23188# VDD VDD m1_32048_n23188#
+ m1_35096_n15744# sky130_fd_pr__pfet_01v8_lvt_79GNHJ
XXM2 OUT VDD PCAS m1_32020_n12120# m1_32020_n12120# OUT PCAS PCAS sky130_fd_pr__pfet_01v8_lvt_RM6ABE
XXM3 m1_31296_n26048# m1_31296_n26048# GM_BIAS VSS GM_BIAS VSS sky130_fd_pr__nfet_01v8_lvt_9U978C
XXM4 m1_32048_n23188# VDD PCAS m1_35096_n15744# m1_35096_n15744# m1_32048_n23188#
+ PCAS PCAS sky130_fd_pr__pfet_01v8_lvt_RM6ABE
XXM5 PIX PIX PIX PIX PIX m1_31296_n26048# PIX PIX PIX PIX m1_31296_n26048# OUT PIX
+ m1_31296_n26048# PIX PIX PIX PIX PIX PIX PIX PIX PIX m1_31296_n26048# PIX OUT m1_31296_n26048#
+ PIX PIX PIX OUT m1_31296_n26048# PIX PIX OUT OUT m1_31296_n26048# PIX OUT PIX m1_31296_n26048#
+ m1_31296_n26048# m1_31296_n26048# PIX OUT OUT OUT m1_31296_n26048# m1_31296_n26048#
+ OUT m1_31296_n26048# OUT m1_31296_n26048# m1_31296_n26048# OUT PIX OUT m1_31296_n26048#
+ PIX PIX VSS OUT m1_31296_n26048# OUT OUT OUT m1_31296_n26048# PIX PIX OUT PIX PIX
+ sky130_fd_pr__nfet_01v8_lvt_RM3WAQ
XXM6 REF REF REF REF REF m1_32048_n23188# REF REF REF REF m1_32048_n23188# m1_31296_n26048#
+ REF m1_32048_n23188# REF REF REF REF REF REF REF REF REF m1_32048_n23188# REF m1_31296_n26048#
+ m1_32048_n23188# REF REF REF m1_31296_n26048# m1_32048_n23188# REF REF m1_31296_n26048#
+ m1_31296_n26048# m1_32048_n23188# REF m1_31296_n26048# REF m1_32048_n23188# m1_32048_n23188#
+ m1_32048_n23188# REF m1_31296_n26048# m1_31296_n26048# m1_31296_n26048# m1_32048_n23188#
+ m1_32048_n23188# m1_31296_n26048# m1_32048_n23188# m1_31296_n26048# m1_32048_n23188#
+ m1_32048_n23188# m1_31296_n26048# REF m1_31296_n26048# m1_32048_n23188# REF REF
+ VSS m1_31296_n26048# m1_32048_n23188# m1_31296_n26048# m1_31296_n26048# m1_31296_n26048#
+ m1_32048_n23188# REF REF m1_31296_n26048# REF REF sky130_fd_pr__nfet_01v8_lvt_RM3WAQ
XXM8 VDD m1_32048_n23188# m1_32020_n12120# m1_32048_n23188# m1_32020_n12120# VDD m1_32048_n23188#
+ VDD sky130_fd_pr__pfet_01v8_lvt_79GNHJ
.ends

.subckt sky130_fd_pr__nfet_01v8_lvt_6LX62X a_35_n100# a_n35_n188# a_n195_n274# a_n93_n100#
X0 a_35_n100# a_n35_n188# a_n93_n100# a_n195_n274# sky130_fd_pr__nfet_01v8_lvt ad=0.29 pd=2.58 as=0.29 ps=2.58 w=1 l=0.35
.ends

.subckt sky130_fd_pr__pfet_01v8_lvt_4QFWD3 a_n93_n200# a_n35_n297# a_35_n200# w_n231_n419#
X0 a_35_n200# a_n35_n297# a_n93_n200# w_n231_n419# sky130_fd_pr__pfet_01v8_lvt ad=0.58 pd=4.58 as=0.58 ps=4.58 w=2 l=0.35
.ends

.subckt not out in VDD VSS
XXM1 out in VSS VSS sky130_fd_pr__nfet_01v8_lvt_6LX62X
XXM10 VDD in out VDD sky130_fd_pr__pfet_01v8_lvt_4QFWD3
.ends

.subckt sky130_fd_pr__pfet_01v8_lvt_ER7S26 a_n221_n4000# a_93_n4097# a_35_n4000# a_291_n4000#
+ a_n349_n4000# a_221_n4097# a_n163_n4097# w_n487_n4219# a_163_n4000# a_n93_n4000#
+ a_n291_n4097# a_n35_n4097#
X0 a_163_n4000# a_93_n4097# a_35_n4000# w_n487_n4219# sky130_fd_pr__pfet_01v8_lvt ad=5.8 pd=40.3 as=5.8 ps=40.3 w=40 l=0.35
X1 a_35_n4000# a_n35_n4097# a_n93_n4000# w_n487_n4219# sky130_fd_pr__pfet_01v8_lvt ad=5.8 pd=40.3 as=5.8 ps=40.3 w=40 l=0.35
X2 a_n221_n4000# a_n291_n4097# a_n349_n4000# w_n487_n4219# sky130_fd_pr__pfet_01v8_lvt ad=5.8 pd=40.3 as=11.6 ps=80.6 w=40 l=0.35
X3 a_n93_n4000# a_n163_n4097# a_n221_n4000# w_n487_n4219# sky130_fd_pr__pfet_01v8_lvt ad=5.8 pd=40.3 as=5.8 ps=40.3 w=40 l=0.35
X4 a_291_n4000# a_221_n4097# a_163_n4000# w_n487_n4219# sky130_fd_pr__pfet_01v8_lvt ad=11.6 pd=80.6 as=5.8 ps=40.3 w=40 l=0.35
.ends

.subckt sky130_fd_pr__nfet_01v8_lvt_4833E6 a_n1016_n4000# a_1016_n4088# G D B a_n958_n4088#
+ a_300_n4000# a_n1616_n4088# S a_358_n4088# a_n358_n4000# a_958_n4000#
X0 a_n1016_n4000# a_n1616_n4088# D B sky130_fd_pr__nfet_01v8_lvt ad=5.8 pd=40.3 as=11.6 ps=80.6 w=40 l=3
X1 a_n358_n4000# a_n958_n4088# a_n1016_n4000# B sky130_fd_pr__nfet_01v8_lvt ad=5.8 pd=40.3 as=5.8 ps=40.3 w=40 l=3
X2 S a_1016_n4088# a_958_n4000# B sky130_fd_pr__nfet_01v8_lvt ad=11.6 pd=80.6 as=5.8 ps=40.3 w=40 l=3
X3 a_300_n4000# G a_n358_n4000# B sky130_fd_pr__nfet_01v8_lvt ad=5.8 pd=40.3 as=5.8 ps=40.3 w=40 l=3
X4 a_958_n4000# a_358_n4088# a_300_n4000# B sky130_fd_pr__nfet_01v8_lvt ad=5.8 pd=40.3 as=5.8 ps=40.3 w=40 l=3
.ends

.subckt switch in out toggle VDD VSS
Xx1 x1/out toggle VDD VSS not
XXM26 in x1/out in in out x1/out x1/out out out out x1/out x1/out sky130_fd_pr__pfet_01v8_lvt_ER7S26
XXM1 out toggle toggle in VSS toggle out toggle out toggle in in sky130_fd_pr__nfet_01v8_lvt_4833E6
.ends

.subckt sky130_fd_pr__nfet_01v8_lvt_T4BG7Y a_200_n5000# a_n360_n5174# a_n200_n5088#
+ a_n258_n5000#
X0 a_200_n5000# a_n200_n5088# a_n258_n5000# a_n360_n5174# sky130_fd_pr__nfet_01v8_lvt ad=14.5 pd=101 as=14.5 ps=101 w=50 l=2
.ends

.subckt sky130_fd_pr__pfet_01v8_lvt_B5Z988 a_n1000_n1097# w_n1196_n1219# a_1000_n1000#
+ a_n1058_n1000#
X0 a_1000_n1000# a_n1000_n1097# a_n1058_n1000# w_n1196_n1219# sky130_fd_pr__pfet_01v8_lvt ad=2.9 pd=20.6 as=2.9 ps=20.6 w=10 l=10
.ends

.subckt curr_mir Vtune VDD Ib VSS
XXM1 VSS VSS m1_1036_6332# m1_1036_6332# sky130_fd_pr__nfet_01v8_lvt_T4BG7Y
XXM2 VSS VSS m1_1036_6332# Ib sky130_fd_pr__nfet_01v8_lvt_T4BG7Y
XXM10 Vtune VDD VDD m1_1036_6332# sky130_fd_pr__pfet_01v8_lvt_B5Z988
.ends

.subckt sky130_fd_pr__pfet_01v8_lvt_CEE7V5 G D B a_358_n597# a_n300_n597# a_958_n500#
+ S a_300_n500#
X0 S G D B sky130_fd_pr__pfet_01v8_lvt ad=0.725 pd=5.29 as=1.45 ps=10.6 w=5 l=3
X1 a_300_n500# a_n300_n597# S B sky130_fd_pr__pfet_01v8_lvt ad=0.725 pd=5.29 as=0.725 ps=5.29 w=5 l=3
X2 a_958_n500# a_358_n597# a_300_n500# B sky130_fd_pr__pfet_01v8_lvt ad=1.45 pd=10.6 as=0.725 ps=5.29 w=5 l=3
.ends

.subckt sky130_fd_pr__pfet_01v8_lvt_8WRJS5 a_29_n347# G D B a_629_n250# a_n629_n347#
+ a_687_n347# a_n29_n250# a_1287_n250# S
X0 a_1287_n250# a_687_n347# a_629_n250# B sky130_fd_pr__pfet_01v8_lvt ad=0.725 pd=5.58 as=0.363 ps=2.79 w=2.5 l=3
X1 a_629_n250# a_29_n347# a_n29_n250# B sky130_fd_pr__pfet_01v8_lvt ad=0.363 pd=2.79 as=0.363 ps=2.79 w=2.5 l=3
X2 a_n29_n250# a_n629_n347# S B sky130_fd_pr__pfet_01v8_lvt ad=0.363 pd=2.79 as=0.363 ps=2.79 w=2.5 l=3
X3 S G D B sky130_fd_pr__pfet_01v8_lvt ad=0.363 pd=2.79 as=0.725 ps=5.58 w=2.5 l=3
.ends

.subckt sky130_fd_pr__nfet_01v8_lvt_HZEGLD a_958_n1600# G a_1016_n1688# D B a_n958_n1688#
+ a_1616_n1600# a_300_n1600# a_n300_n1688# S a_358_n1688# a_n358_n1600#
X0 a_300_n1600# a_n300_n1688# a_n358_n1600# B sky130_fd_pr__nfet_01v8_lvt ad=2.32 pd=16.3 as=2.32 ps=16.3 w=16 l=3
X1 a_958_n1600# a_358_n1688# a_300_n1600# B sky130_fd_pr__nfet_01v8_lvt ad=2.32 pd=16.3 as=2.32 ps=16.3 w=16 l=3
X2 S G D B sky130_fd_pr__nfet_01v8_lvt ad=2.32 pd=16.3 as=4.64 ps=32.6 w=16 l=3
X3 a_n358_n1600# a_n958_n1688# S B sky130_fd_pr__nfet_01v8_lvt ad=2.32 pd=16.3 as=2.32 ps=16.3 w=16 l=3
X4 a_1616_n1600# a_1016_n1688# a_958_n1600# B sky130_fd_pr__nfet_01v8_lvt ad=4.64 pd=32.6 as=2.32 ps=16.3 w=16 l=3
.ends

.subckt sky130_fd_pr__nfet_01v8_lvt_RFVHWA G D B S
X0 S G D B sky130_fd_pr__nfet_01v8_lvt ad=1.45 pd=10.6 as=1.45 ps=10.6 w=5 l=3
.ends

.subckt sky130_fd_pr__nfet_01v8_lvt_7233E2 G D B S
X0 S G D B sky130_fd_pr__nfet_01v8_lvt ad=2.32 pd=16.6 as=2.32 ps=16.6 w=8 l=3
.ends

.subckt sky130_fd_pr__pfet_01v8_lvt_CEAZV5 G a_29_n597# D B a_629_n500# S
X0 a_629_n500# a_29_n597# S B sky130_fd_pr__pfet_01v8_lvt ad=1.45 pd=10.6 as=0.725 ps=5.29 w=5 l=3
X1 S G D B sky130_fd_pr__pfet_01v8_lvt ad=0.725 pd=5.29 as=1.45 ps=10.6 w=5 l=3
.ends

.subckt sky130_fd_pr__cap_mim_m3_1_ZYFHHD c0 c1
X0 c0 c1 sky130_fd_pr__cap_mim_m3_1 l=4 w=2
.ends

.subckt sky130_fd_pr__pfet_01v8_lvt_LEXMNV G D a_n958_n2097# w_n1812_n2219# a_n358_n2000#
+ a_958_n2000# a_n300_n2097# a_1616_n2000# a_358_n2097# S a_300_n2000# a_1016_n2097#
X0 S G D w_n1812_n2219# sky130_fd_pr__pfet_01v8_lvt ad=2.9 pd=20.3 as=5.8 ps=40.6 w=20 l=3
X1 a_n358_n2000# a_n958_n2097# S w_n1812_n2219# sky130_fd_pr__pfet_01v8_lvt ad=2.9 pd=20.3 as=2.9 ps=20.3 w=20 l=3
X2 a_1616_n2000# a_1016_n2097# a_958_n2000# w_n1812_n2219# sky130_fd_pr__pfet_01v8_lvt ad=5.8 pd=40.6 as=2.9 ps=20.3 w=20 l=3
X3 a_300_n2000# a_n300_n2097# a_n358_n2000# w_n1812_n2219# sky130_fd_pr__pfet_01v8_lvt ad=2.9 pd=20.3 as=2.9 ps=20.3 w=20 l=3
X4 a_958_n2000# a_358_n2097# a_300_n2000# w_n1812_n2219# sky130_fd_pr__pfet_01v8_lvt ad=2.9 pd=20.3 as=2.9 ps=20.3 w=20 l=3
.ends

.subckt opamp opbias inp inn VDD out VSS
XXM14 inn XM5/G VDD inn inn XM26/D XM26/D XM5/G sky130_fd_pr__pfet_01v8_lvt_CEE7V5
XXM26 opbias opbias XM26/D VDD VDD opbias opbias XM26/D XM26/D VDD sky130_fd_pr__pfet_01v8_lvt_8WRJS5
XXM15 inp XM2/G VDD inp inp XM26/D XM26/D XM2/G sky130_fd_pr__pfet_01v8_lvt_CEE7V5
XXM17 out XM2/G XM2/G out VSS XM2/G VSS VSS XM2/G VSS XM2/G out sky130_fd_pr__nfet_01v8_lvt_HZEGLD
XXM19 XM5/G XM5/G VSS VSS sky130_fd_pr__nfet_01v8_lvt_RFVHWA
XXM2 XM2/G XM4/G VSS VSS sky130_fd_pr__nfet_01v8_lvt_7233E2
XXM3 XM4/G XM4/G XM4/G VDD XM4/G VDD sky130_fd_pr__pfet_01v8_lvt_CEAZV5
XXM4 XM4/G XM4/G XM5/D VDD XM5/D VDD sky130_fd_pr__pfet_01v8_lvt_CEAZV5
XXM5 XM5/G XM5/D VSS VSS sky130_fd_pr__nfet_01v8_lvt_7233E2
XXC1 XM5/D out sky130_fd_pr__cap_mim_m3_1_ZYFHHD
XXC2 out XM2/G sky130_fd_pr__cap_mim_m3_1_ZYFHHD
XXM20 XM5/G XM2/G VSS VSS sky130_fd_pr__nfet_01v8_lvt_RFVHWA
XXM10 XM5/D out XM5/D VDD out out XM5/D VDD XM5/D VDD VDD XM5/D sky130_fd_pr__pfet_01v8_lvt_LEXMNV
.ends

.subckt sky130_fd_pr__cap_mim_m3_1_3HBNLG c0 c1
X0 c0 c1 sky130_fd_pr__cap_mim_m3_1 l=30 w=30
.ends

.subckt integrator sw4 sw3 rst sw2 sw1 opbias en Vtune intin VDD intout VSS
Xx1 x9/in x1/out sw1 VDD VSS switch
Xx3 Vtune VDD intin VSS curr_mir
Xx2 intin x9/in x7/out VDD VSS switch
Xx4 opbias VSS x9/in VDD intout VSS opamp
Xx5 x9/in intout rst VDD VSS switch
Xx6 intin VSS en VDD VSS switch
Xx7 x7/out en VDD VSS not
Xx8 x9/in x8/out sw4 VDD VSS switch
Xx9 x9/in x9/out sw2 VDD VSS switch
XXC1 x1/out intout sky130_fd_pr__cap_mim_m3_1_3HBNLG
XXC2 x9/out intout sky130_fd_pr__cap_mim_m3_1_3HBNLG
Xx10 x9/in XC3/c0 sw3 VDD VSS switch
XXC3 XC3/c0 intout sky130_fd_pr__cap_mim_m3_1_3HBNLG
XXC4 x8/out intout sky130_fd_pr__cap_mim_m3_1_3HBNLG
.ends

.subckt mux2_1 SEL0 IN1 IN0 VDD OUT VSS
Xx1 x1/out SEL0 VDD VSS not
Xx5 IN0 OUT x1/out VDD VSS switch
Xx6 IN1 OUT SEL0 VDD VSS switch
.ends

.subckt buffer opbias in out VDD VSS
Xx1 opbias in out VDD out VSS opamp
.ends

.subckt ColROs VDD AIn0 AIn1 AIn2 AIn3 AIn4 AIn5 REG0 REG1 REG2 REG3 REG4 REG5 REG6
+ AOut VSS
Xx1 AIn3 AIn0 AIn1 AIn2 VDD VSS x3/IN0 diffamp
Xx2 REG5 REG4 REG1 REG3 REG2 AIn4 REG0 AIn5 x3/IN0 VDD x3/IN1 VSS integrator
Xx3 REG6 x3/IN1 x3/IN0 VDD x7/in VSS mux2_1
Xx7 AIn4 x7/in AOut VDD VSS buffer
.ends

.subckt MulColROs VDD AOut[3] AOut[2] AOut[1] AOut[0] REG6 REG5 REG4 REG3 REG2 REG1
+ REG0 AIn5 AIn4 AIn3 AIn2 AIn0 AIn[3] AIn[2] AIn[1] AIn[0] VSS
XxMulColROs[3] VDD AIn0 AIn[3] AIn2 AIn3 AIn4 AIn5 REG0 REG1 REG2 REG3 REG4 REG5 REG6
+ AOut[3] VSS ColROs
XxMulColROs[2] VDD AIn0 AIn[2] AIn2 AIn3 AIn4 AIn5 REG0 REG1 REG2 REG3 REG4 REG5 REG6
+ AOut[2] VSS ColROs
XxMulColROs[1] VDD AIn0 AIn[1] AIn2 AIn3 AIn4 AIn5 REG0 REG1 REG2 REG3 REG4 REG5 REG6
+ AOut[1] VSS ColROs
XxMulColROs[0] VDD AIn0 AIn[0] AIn2 AIn3 AIn4 AIn5 REG0 REG1 REG2 REG3 REG4 REG5 REG6
+ AOut[0] VSS ColROs
.ends

.subckt sky130_fd_pr__res_xhigh_po_0p69_RV3JGD a_n69_1300# a_n69_n1732# a_n199_n1862#
X0 a_n69_n1732# a_n69_1300# a_n199_n1862# sky130_fd_pr__res_xhigh_po_0p69 l=13
.ends

.subckt sky130_fd_pr__pfet_g5v0d10v5_FGUWVM#2 a_n100_n197# a_100_n100# w_n358_n397#
+ a_n158_n100#
X0 a_100_n100# a_n100_n197# a_n158_n100# w_n358_n397# sky130_fd_pr__pfet_g5v0d10v5 ad=0.29 pd=2.58 as=0.29 ps=2.58 w=1 l=1
.ends

.subckt sky130_fd_pr__pfet_g5v0d10v5_FGR8VM a_n100_n497# a_100_n400# w_n358_n697#
+ a_n158_n400#
X0 a_100_n400# a_n100_n497# a_n158_n400# w_n358_n697# sky130_fd_pr__pfet_g5v0d10v5 ad=1.16 pd=8.58 as=1.16 ps=8.58 w=4 l=1
.ends

.subckt dac_cell3 vsup iref vsw iout iout_n vbias vgnd
XXR1 sourceM2 parR vgnd sky130_fd_pr__res_xhigh_po_0p69_RV3JGD
XXR2 sourceM2 parR vgnd sky130_fd_pr__res_xhigh_po_0p69_RV3JGD
XXR3 parR vsup vgnd sky130_fd_pr__res_xhigh_po_0p69_RV3JGD
XXR4 vsup parR vgnd sky130_fd_pr__res_xhigh_po_0p69_RV3JGD
XXM1 iref iref vsup vsup sky130_fd_pr__pfet_g5v0d10v5_FGUWVM#2
XXM2 iref sourceM3M4 vsup sourceM2 sky130_fd_pr__pfet_g5v0d10v5_FGR8VM
XXM3 vsw iout vsup sourceM3M4 sky130_fd_pr__pfet_g5v0d10v5_FGR8VM
XXM4 vbias iout_n vsup sourceM3M4 sky130_fd_pr__pfet_g5v0d10v5_FGR8VM
.ends

.subckt sky130_fd_pr__res_high_po_5p73_6QQPRG a_n573_125# a_n573_n557# a_n703_n687#
X0 a_n573_n557# a_n573_125# a_n703_n687# sky130_fd_pr__res_high_po_5p73 l=1.25
.ends

.subckt sky130_fd_pr__res_xhigh_po_0p69_MS44J6 a_n69_n6232# a_n69_5800# a_n199_n6362#
X0 a_n69_n6232# a_n69_5800# a_n199_n6362# sky130_fd_pr__res_xhigh_po_0p69 l=58
.ends

.subckt sky130_fd_pr__pfet_g5v0d10v5_FGUWVM#0 a_n100_n197# a_100_n100# w_n358_n397#
+ a_n158_n100#
X0 a_100_n100# a_n100_n197# a_n158_n100# w_n358_n397# sky130_fd_pr__pfet_g5v0d10v5 ad=0.29 pd=2.58 as=0.29 ps=2.58 w=1 l=1
.ends

.subckt dac_cell1 vsup iref vsw iout iout_n vbias vgnd
XXR1 parR sourceM2 vgnd sky130_fd_pr__res_xhigh_po_0p69_MS44J6
XXR2 parR sourceM2 vgnd sky130_fd_pr__res_xhigh_po_0p69_MS44J6
XXR3 parR vsup vgnd sky130_fd_pr__res_xhigh_po_0p69_MS44J6
XXR4 parR vsup vgnd sky130_fd_pr__res_xhigh_po_0p69_MS44J6
XXM1 iref iref vsup vsup sky130_fd_pr__pfet_g5v0d10v5_FGUWVM#0
XXM2 iref sourceM3M4 vsup sourceM2 sky130_fd_pr__pfet_g5v0d10v5_FGUWVM#0
XXM3 vsw iout vsup sourceM3M4 sky130_fd_pr__pfet_g5v0d10v5_FGUWVM#0
XXM4 vbias iout_n vsup sourceM3M4 sky130_fd_pr__pfet_g5v0d10v5_FGUWVM#0
.ends

.subckt sky130_fd_pr__res_xhigh_po_2p85_5DPYAB a_n415_n687# a_n285_125# a_n285_n557#
X0 a_n285_n557# a_n285_125# a_n415_n687# sky130_fd_pr__res_xhigh_po_2p85 l=1.25
.ends

.subckt sky130_fd_pr__res_xhigh_po_0p35_PZAK34 a_n165_n982# a_n35_n852# a_n35_420#
X0 a_n35_n852# a_n35_420# a_n165_n982# sky130_fd_pr__res_xhigh_po_0p35 l=4.2
.ends

.subckt sky130_fd_pr__res_xhigh_po_0p69_5CVACY a_n199_n1162# a_n69_600# a_n69_n1032#
X0 a_n69_n1032# a_n69_600# a_n199_n1162# sky130_fd_pr__res_xhigh_po_0p69 l=6
.ends

.subckt sky130_fd_pr__nfet_g5v0d10v5_FJGQ2Y a_50_n500# a_n242_n722# a_n108_n500# a_n50_n588#
X0 a_50_n500# a_n50_n588# a_n108_n500# a_n242_n722# sky130_fd_pr__nfet_g5v0d10v5 ad=1.45 pd=10.6 as=1.45 ps=10.6 w=5 l=0.5
.ends

.subckt sky130_fd_pr__nfet_g5v0d10v5_NQCFE9 a_189_n500# a_89_n588# a_31_n500# a_n189_n588#
+ a_n381_n722# a_n89_n500# a_n247_n500#
X0 a_189_n500# a_89_n588# a_31_n500# a_n381_n722# sky130_fd_pr__nfet_g5v0d10v5 ad=1.45 pd=10.6 as=1.45 ps=10.6 w=5 l=0.5
X1 a_n89_n500# a_n189_n588# a_n247_n500# a_n381_n722# sky130_fd_pr__nfet_g5v0d10v5 ad=1.45 pd=10.6 as=1.45 ps=10.6 w=5 l=0.5
.ends

.subckt sky130_fd_pr__nfet_g5v0d10v5_CJGAEC a_189_n500# a_89_n588# a_31_n500# a_n189_n588#
+ a_n381_n722# a_n89_n500# a_n247_n500#
X0 a_189_n500# a_89_n588# a_31_n500# a_n381_n722# sky130_fd_pr__nfet_g5v0d10v5 ad=1.45 pd=10.6 as=1.45 ps=10.6 w=5 l=0.5
X1 a_n89_n500# a_n189_n588# a_n247_n500# a_n381_n722# sky130_fd_pr__nfet_g5v0d10v5 ad=1.45 pd=10.6 as=1.45 ps=10.6 w=5 l=0.5
.ends

.subckt sky130_fd_pr__nfet_g5v0d10v5_2MGL8M a_367_n688# a_89_n688# a_31_n600# a_n189_n688#
+ a_n1023_n688# a_645_n688# a_n467_n688# a_923_n688# a_n745_n688# a_n89_n600# a_n367_n600#
+ a_n645_n600# a_n1081_n600# a_n247_n600# a_n923_n600# a_n525_n600# a_n803_n600# a_309_n600#
+ a_587_n600# a_189_n600# a_865_n600# a_467_n600# a_n1215_n822# a_745_n600# a_1023_n600#
X0 a_n367_n600# a_n467_n688# a_n525_n600# a_n1215_n822# sky130_fd_pr__nfet_g5v0d10v5 ad=1.74 pd=12.6 as=1.74 ps=12.6 w=6 l=0.5
X1 a_467_n600# a_367_n688# a_309_n600# a_n1215_n822# sky130_fd_pr__nfet_g5v0d10v5 ad=1.74 pd=12.6 as=1.74 ps=12.6 w=6 l=0.5
X2 a_189_n600# a_89_n688# a_31_n600# a_n1215_n822# sky130_fd_pr__nfet_g5v0d10v5 ad=1.74 pd=12.6 as=1.74 ps=12.6 w=6 l=0.5
X3 a_n645_n600# a_n745_n688# a_n803_n600# a_n1215_n822# sky130_fd_pr__nfet_g5v0d10v5 ad=1.74 pd=12.6 as=1.74 ps=12.6 w=6 l=0.5
X4 a_745_n600# a_645_n688# a_587_n600# a_n1215_n822# sky130_fd_pr__nfet_g5v0d10v5 ad=1.74 pd=12.6 as=1.74 ps=12.6 w=6 l=0.5
X5 a_n89_n600# a_n189_n688# a_n247_n600# a_n1215_n822# sky130_fd_pr__nfet_g5v0d10v5 ad=1.74 pd=12.6 as=1.74 ps=12.6 w=6 l=0.5
X6 a_n923_n600# a_n1023_n688# a_n1081_n600# a_n1215_n822# sky130_fd_pr__nfet_g5v0d10v5 ad=1.74 pd=12.6 as=1.74 ps=12.6 w=6 l=0.5
X7 a_1023_n600# a_923_n688# a_865_n600# a_n1215_n822# sky130_fd_pr__nfet_g5v0d10v5 ad=1.74 pd=12.6 as=1.74 ps=12.6 w=6 l=0.5
.ends

.subckt sky130_fd_pr__pfet_g5v0d10v5_X3UTN5 a_170_n700# a_n50_n797# a_50_n700# a_n228_n700#
+ w_n586_n997# a_n108_n700# a_n386_n700# a_228_n797# a_n328_n797# a_328_n700#
X0 a_328_n700# a_228_n797# a_170_n700# w_n586_n997# sky130_fd_pr__pfet_g5v0d10v5 ad=2.03 pd=14.6 as=2.03 ps=14.6 w=7 l=0.5
X1 a_50_n700# a_n50_n797# a_n108_n700# w_n586_n997# sky130_fd_pr__pfet_g5v0d10v5 ad=2.03 pd=14.6 as=2.03 ps=14.6 w=7 l=0.5
X2 a_n228_n700# a_n328_n797# a_n386_n700# w_n586_n997# sky130_fd_pr__pfet_g5v0d10v5 ad=2.03 pd=14.6 as=2.03 ps=14.6 w=7 l=0.5
.ends

.subckt sky130_fd_pr__pfet_g5v0d10v5_AE43MT a_170_n700# a_n50_n797# a_50_n700# a_n228_n700#
+ w_n586_n997# a_n108_n700# a_n386_n700# a_228_n797# a_n328_n797# a_328_n700#
X0 a_328_n700# a_228_n797# a_170_n700# w_n586_n997# sky130_fd_pr__pfet_g5v0d10v5 ad=2.03 pd=14.6 as=2.03 ps=14.6 w=7 l=0.5
X1 a_50_n700# a_n50_n797# a_n108_n700# w_n586_n997# sky130_fd_pr__pfet_g5v0d10v5 ad=2.03 pd=14.6 as=2.03 ps=14.6 w=7 l=0.5
X2 a_n228_n700# a_n328_n797# a_n386_n700# w_n586_n997# sky130_fd_pr__pfet_g5v0d10v5 ad=2.03 pd=14.6 as=2.03 ps=14.6 w=7 l=0.5
.ends

.subckt sky130_fd_pr__pfet_g5v0d10v5_CNRWF7 a_1579_n1300# a_n803_n1300# a_n1757_n1300#
+ a_n2035_n1300# a_1301_n1300# a_n645_n1300# a_1143_n1300# a_n2413_n1397# a_n2691_n1397#
+ a_n1637_n1300# a_n2193_n1300# w_n2949_n1597# a_189_n1300# a_n525_n1300# a_2591_n1397#
+ a_2313_n1397# a_923_n1397# a_2533_n1300# a_1023_n1300# a_n1479_n1300# a_n367_n1300#
+ a_n1201_n1300# a_n1857_n1397# a_n2135_n1397# a_n745_n1397# a_2691_n1300# a_2413_n1300#
+ a_n89_n1300# a_n1359_n1300# a_n247_n1300# a_645_n1397# a_2255_n1300# a_1977_n1300#
+ a_865_n1300# a_2035_n1397# a_1757_n1397# a_n2749_n1300# a_n1579_n1397# a_n1301_n1397#
+ a_2135_n1300# a_1857_n1300# a_745_n1300# a_n467_n1397# a_n1081_n1300# a_n2313_n1300#
+ a_n2591_n1300# a_89_n1397# a_587_n1300# a_309_n1300# a_1479_n1397# a_367_n1397#
+ a_1699_n1300# a_31_n1300# a_n923_n1300# a_1201_n1397# a_1421_n1300# a_n1915_n1300#
+ a_n2471_n1300# a_467_n1300# a_n189_n1397# a_n1023_n1397#
X0 a_1857_n1300# a_1757_n1397# a_1699_n1300# w_n2949_n1597# sky130_fd_pr__pfet_g5v0d10v5 ad=3.77 pd=26.6 as=3.77 ps=26.6 w=13 l=0.5
X1 a_2691_n1300# a_2591_n1397# a_2533_n1300# w_n2949_n1597# sky130_fd_pr__pfet_g5v0d10v5 ad=3.77 pd=26.6 as=3.77 ps=26.6 w=13 l=0.5
X2 a_n923_n1300# a_n1023_n1397# a_n1081_n1300# w_n2949_n1597# sky130_fd_pr__pfet_g5v0d10v5 ad=3.77 pd=26.6 as=3.77 ps=26.6 w=13 l=0.5
X3 a_745_n1300# a_645_n1397# a_587_n1300# w_n2949_n1597# sky130_fd_pr__pfet_g5v0d10v5 ad=3.77 pd=26.6 as=3.77 ps=26.6 w=13 l=0.5
X4 a_n2035_n1300# a_n2135_n1397# a_n2193_n1300# w_n2949_n1597# sky130_fd_pr__pfet_g5v0d10v5 ad=3.77 pd=26.6 as=3.77 ps=26.6 w=13 l=0.5
X5 a_1579_n1300# a_1479_n1397# a_1421_n1300# w_n2949_n1597# sky130_fd_pr__pfet_g5v0d10v5 ad=3.77 pd=26.6 as=3.77 ps=26.6 w=13 l=0.5
X6 a_467_n1300# a_367_n1397# a_309_n1300# w_n2949_n1597# sky130_fd_pr__pfet_g5v0d10v5 ad=3.77 pd=26.6 as=3.77 ps=26.6 w=13 l=0.5
X7 a_n645_n1300# a_n745_n1397# a_n803_n1300# w_n2949_n1597# sky130_fd_pr__pfet_g5v0d10v5 ad=3.77 pd=26.6 as=3.77 ps=26.6 w=13 l=0.5
X8 a_n2591_n1300# a_n2691_n1397# a_n2749_n1300# w_n2949_n1597# sky130_fd_pr__pfet_g5v0d10v5 ad=3.77 pd=26.6 as=3.77 ps=26.6 w=13 l=0.5
X9 a_n1757_n1300# a_n1857_n1397# a_n1915_n1300# w_n2949_n1597# sky130_fd_pr__pfet_g5v0d10v5 ad=3.77 pd=26.6 as=3.77 ps=26.6 w=13 l=0.5
X10 a_n367_n1300# a_n467_n1397# a_n525_n1300# w_n2949_n1597# sky130_fd_pr__pfet_g5v0d10v5 ad=3.77 pd=26.6 as=3.77 ps=26.6 w=13 l=0.5
X11 a_1301_n1300# a_1201_n1397# a_1143_n1300# w_n2949_n1597# sky130_fd_pr__pfet_g5v0d10v5 ad=3.77 pd=26.6 as=3.77 ps=26.6 w=13 l=0.5
X12 a_2413_n1300# a_2313_n1397# a_2255_n1300# w_n2949_n1597# sky130_fd_pr__pfet_g5v0d10v5 ad=3.77 pd=26.6 as=3.77 ps=26.6 w=13 l=0.5
X13 a_n1479_n1300# a_n1579_n1397# a_n1637_n1300# w_n2949_n1597# sky130_fd_pr__pfet_g5v0d10v5 ad=3.77 pd=26.6 as=3.77 ps=26.6 w=13 l=0.5
X14 a_n89_n1300# a_n189_n1397# a_n247_n1300# w_n2949_n1597# sky130_fd_pr__pfet_g5v0d10v5 ad=3.77 pd=26.6 as=3.77 ps=26.6 w=13 l=0.5
X15 a_2135_n1300# a_2035_n1397# a_1977_n1300# w_n2949_n1597# sky130_fd_pr__pfet_g5v0d10v5 ad=3.77 pd=26.6 as=3.77 ps=26.6 w=13 l=0.5
X16 a_189_n1300# a_89_n1397# a_31_n1300# w_n2949_n1597# sky130_fd_pr__pfet_g5v0d10v5 ad=3.77 pd=26.6 as=3.77 ps=26.6 w=13 l=0.5
X17 a_n1201_n1300# a_n1301_n1397# a_n1359_n1300# w_n2949_n1597# sky130_fd_pr__pfet_g5v0d10v5 ad=3.77 pd=26.6 as=3.77 ps=26.6 w=13 l=0.5
X18 a_1023_n1300# a_923_n1397# a_865_n1300# w_n2949_n1597# sky130_fd_pr__pfet_g5v0d10v5 ad=3.77 pd=26.6 as=3.77 ps=26.6 w=13 l=0.5
X19 a_n2313_n1300# a_n2413_n1397# a_n2471_n1300# w_n2949_n1597# sky130_fd_pr__pfet_g5v0d10v5 ad=3.77 pd=26.6 as=3.77 ps=26.6 w=13 l=0.5
.ends

.subckt sky130_fd_pr__cap_mim_m3_1_C5B489 c1_n1050_n1400# m3_n1150_n1500#
X0 c1_n1050_n1400# m3_n1150_n1500# sky130_fd_pr__cap_mim_m3_1 l=14 w=10
.ends

.subckt miel21_opamp inPos inNeg outSingle power ground
XXR1 ground m1_n1838_8400# bias sky130_fd_pr__res_xhigh_po_0p69_5CVACY
XXR2 ground m1_n1838_8400# m1_360_8394# sky130_fd_pr__res_xhigh_po_0p69_5CVACY
XXR3 ground m1_360_8394# power sky130_fd_pr__res_xhigh_po_0p69_5CVACY
XXM1 d1 ground nsources inPos sky130_fd_pr__nfet_g5v0d10v5_FJGQ2Y
XXM2 d2 ground nsources inNeg sky130_fd_pr__nfet_g5v0d10v5_FJGQ2Y
XXM3 bias bias ground bias ground bias ground sky130_fd_pr__nfet_g5v0d10v5_NQCFE9
XXM4 nsources bias ground bias ground nsources ground sky130_fd_pr__nfet_g5v0d10v5_CJGAEC
XXM5 bias bias ground bias bias bias bias bias bias outSingle outSingle outSingle
+ ground ground outSingle ground ground ground ground outSingle ground outSingle ground
+ outSingle outSingle sky130_fd_pr__nfet_g5v0d10v5_2MGL8M
XXM6 power d1 d1 d1 power power power d1 d1 d1 sky130_fd_pr__pfet_g5v0d10v5_X3UTN5
XXM7 power d1 d2 d2 power power power d1 d1 d2 sky130_fd_pr__pfet_g5v0d10v5_AE43MT
XXM8 outSingle power outSingle outSingle outSingle outSingle power d2 d2 power power
+ power outSingle power d2 d2 d2 power outSingle outSingle outSingle outSingle d2
+ d2 d2 outSingle outSingle outSingle power power d2 power power power d2 d2 power
+ d2 d2 outSingle outSingle outSingle d2 power outSingle outSingle d2 power power