* NGSPICE file created from user_analog_project_wrapper.ext - technology: sky130A

.subckt sky130_fd_sc_hvl__lsbufhv2hv_lh_1 A LOWHVPWR VGND VNB VPB VPWR X
X0 VGND a_626_141# a_847_1221# VNB sky130_fd_pr__nfet_g5v0d10v5 ad=0.398 pd=3.53 as=0.21 ps=1.78 w=1.5 l=0.5
X1 X a_1353_107# VPWR VPB sky130_fd_pr__pfet_g5v0d10v5 ad=0.398 pd=3.53 as=0.286 ps=2.18 w=1.5 l=0.5
X2 X a_1353_107# VGND VNB sky130_fd_pr__nfet_g5v0d10v5 ad=0.199 pd=2.03 as=0.199 ps=2.03 w=0.75 l=0.5
X3 VPWR a_847_1221# a_1353_107# VPB sky130_fd_pr__pfet_g5v0d10v5 ad=0.214 pd=1.99 as=0.214 ps=1.99 w=0.42 l=1
X4 a_935_141# a_626_141# VGND VNB sky130_fd_pr__nfet_g5v0d10v5 ad=0.199 pd=2.03 as=0.105 ps=1.03 w=0.75 l=0.5
X5 a_847_1221# a_626_141# VGND VNB sky130_fd_pr__nfet_g5v0d10v5 ad=0.21 pd=1.78 as=0.21 ps=1.78 w=1.5 l=0.5
X6 VGND a_935_141# a_1353_107# VNB sky130_fd_pr__nfet_g5v0d10v5 ad=0.21 pd=1.78 as=0.21 ps=1.78 w=1.5 l=0.5
X7 VPWR a_1353_107# a_847_1221# VPB sky130_fd_pr__pfet_g5v0d10v5 ad=0.286 pd=2.18 as=0.214 ps=1.99 w=0.42 l=1
X8 a_935_141# a_626_141# LOWHVPWR LOWHVPWR sky130_fd_pr__pfet_g5v0d10v5 ad=0.199 pd=2.03 as=0.105 ps=1.03 w=0.75 l=0.5
X9 VGND a_935_141# a_1353_107# VNB sky130_fd_pr__nfet_g5v0d10v5 ad=0.398 pd=3.53 as=0.21 ps=1.78 w=1.5 l=0.5
X10 VGND A a_626_141# VNB sky130_fd_pr__nfet_g5v0d10v5 ad=0.105 pd=1.03 as=0.199 ps=2.03 w=0.75 l=0.5
X11 a_1353_107# a_935_141# VGND VNB sky130_fd_pr__nfet_g5v0d10v5 ad=0.21 pd=1.78 as=0.398 ps=3.53 w=1.5 l=0.5
X12 VGND a_626_141# a_847_1221# VNB sky130_fd_pr__nfet_g5v0d10v5 ad=0.21 pd=1.78 as=0.21 ps=1.78 w=1.5 l=0.5
X13 a_1353_107# a_935_141# VGND VNB sky130_fd_pr__nfet_g5v0d10v5 ad=0.21 pd=1.78 as=0.21 ps=1.78 w=1.5 l=0.5
X14 LOWHVPWR A a_626_141# LOWHVPWR sky130_fd_pr__pfet_g5v0d10v5 ad=0.105 pd=1.03 as=0.199 ps=2.03 w=0.75 l=0.5
X15 a_847_1221# a_626_141# VGND VNB sky130_fd_pr__nfet_g5v0d10v5 ad=0.21 pd=1.78 as=0.398 ps=3.53 w=1.5 l=0.5
.ends

.subckt sky130_fd_pr__pfet_01v8_lvt_79GNHJ a_4558_n3000# a_n1500_n3097# a_n4616_n3000#
+ a_1558_n3097# a_1500_n3000# w_n4754_n3219# a_n4558_n3097# a_n1558_n3000#
X0 a_1500_n3000# a_n1500_n3097# a_n1558_n3000# w_n4754_n3219# sky130_fd_pr__pfet_01v8_lvt ad=4.35 pd=30.3 as=4.35 ps=30.3 w=30 l=15
X1 a_4558_n3000# a_1558_n3097# a_1500_n3000# w_n4754_n3219# sky130_fd_pr__pfet_01v8_lvt ad=8.7 pd=60.6 as=4.35 ps=30.3 w=30 l=15
X2 a_n1558_n3000# a_n4558_n3097# a_n4616_n3000# w_n4754_n3219# sky130_fd_pr__pfet_01v8_lvt ad=4.35 pd=30.3 as=8.7 ps=60.6 w=30 l=15
.ends

.subckt sky130_fd_pr__pfet_01v8_lvt_RM6ABE a_300_n3000# w_n1154_n3219# a_n958_n3097#
+ a_n358_n3000# a_958_n3000# a_n1016_n3000# a_n300_n3097# a_358_n3097#
X0 a_n358_n3000# a_n958_n3097# a_n1016_n3000# w_n1154_n3219# sky130_fd_pr__pfet_01v8_lvt ad=4.35 pd=30.3 as=8.7 ps=60.6 w=30 l=3
X1 a_300_n3000# a_n300_n3097# a_n358_n3000# w_n1154_n3219# sky130_fd_pr__pfet_01v8_lvt ad=4.35 pd=30.3 as=4.35 ps=30.3 w=30 l=3
X2 a_958_n3000# a_358_n3097# a_300_n3000# w_n1154_n3219# sky130_fd_pr__pfet_01v8_lvt ad=8.7 pd=60.6 as=4.35 ps=30.3 w=30 l=3
.ends

.subckt sky130_fd_pr__nfet_01v8_lvt_9U978C a_n3087_n1000# a_3029_n1000# a_29_n1088#
+ a_n3189_n1174# a_n3029_n1088# a_n29_n1000#
X0 a_n29_n1000# a_n3029_n1088# a_n3087_n1000# a_n3189_n1174# sky130_fd_pr__nfet_01v8_lvt ad=1.45 pd=10.3 as=2.9 ps=20.6 w=10 l=15
X1 a_3029_n1000# a_29_n1088# a_n29_n1000# a_n3189_n1174# sky130_fd_pr__nfet_01v8_lvt ad=2.9 pd=20.6 as=1.45 ps=10.3 w=10 l=15
.ends

.subckt sky130_fd_pr__nfet_01v8_lvt_RM3WAQ a_12536_n2374# a_n1108_n2374# a_11778_n2374#
+ a_1924_n2374# a_n7930_n2374# a_n408_n2286# a_11020_n2374# a_n6414_n2374# a_10262_n2374#
+ a_n5656_n2374# a_11720_n2286# a_10962_n2286# a_n4898_n2374# a_10204_n2286# a_5714_n2374#
+ a_4956_n2374# a_n4140_n2374# a_n3382_n2374# a_n8688_n2374# a_n9446_n2374# a_9504_n2374#
+ a_3440_n2374# a_2682_n2374# a_13236_n2286# a_8746_n2374# a_12478_n2286# a_2624_n2286#
+ a_7988_n2374# a_1166_n2374# a_n7172_n2374# a_1866_n2286# a_1108_n2286# a_7230_n2374#
+ a_6472_n2374# a_7930_n2286# a_6414_n2286# a_5656_n2286# a_4198_n2374# a_4898_n2286#
+ a_408_n2374# a_4140_n2286# a_n1924_n2286# a_n12536_n2286# a_n350_n2374# a_9446_n2286#
+ a_3382_n2286# a_n11778_n2286# a_8688_n2286# a_n11020_n2286# a_n10262_n2286# a_7172_n2286#
+ a_n5714_n2286# a_n4956_n2286# a_n3440_n2286# a_n13294_n2286# a_n11720_n2374# a_n2682_n2286#
+ a_n9504_n2286# a_n10204_n2374# a_n10962_n2374# a_n13396_n2460# a_n1166_n2286# a_n7988_n2286#
+ a_n8746_n2286# a_350_n2286# a_n7230_n2286# a_n6472_n2286# a_n2624_n2374# a_n13236_n2374#
+ a_n4198_n2286# a_n1866_n2374# a_n12478_n2374#
X0 a_n11778_n2286# a_n12478_n2374# a_n12536_n2286# a_n13396_n2460# sky130_fd_pr__nfet_01v8_lvt ad=3.31 pd=23.1 as=3.31 ps=23.1 w=22.9 l=3.5
X1 a_n8746_n2286# a_n9446_n2374# a_n9504_n2286# a_n13396_n2460# sky130_fd_pr__nfet_01v8_lvt ad=3.31 pd=23.1 as=3.31 ps=23.1 w=22.9 l=3.5
X2 a_350_n2286# a_n350_n2374# a_n408_n2286# a_n13396_n2460# sky130_fd_pr__nfet_01v8_lvt ad=3.31 pd=23.1 as=3.31 ps=23.1 w=22.9 l=3.5
X3 a_10204_n2286# a_9504_n2374# a_9446_n2286# a_n13396_n2460# sky130_fd_pr__nfet_01v8_lvt ad=3.31 pd=23.1 as=3.31 ps=23.1 w=22.9 l=3.5
X4 a_n1924_n2286# a_n2624_n2374# a_n2682_n2286# a_n13396_n2460# sky130_fd_pr__nfet_01v8_lvt ad=3.31 pd=23.1 as=3.31 ps=23.1 w=22.9 l=3.5
X5 a_7172_n2286# a_6472_n2374# a_6414_n2286# a_n13396_n2460# sky130_fd_pr__nfet_01v8_lvt ad=3.31 pd=23.1 as=3.31 ps=23.1 w=22.9 l=3.5
X6 a_4898_n2286# a_4198_n2374# a_4140_n2286# a_n13396_n2460# sky130_fd_pr__nfet_01v8_lvt ad=3.31 pd=23.1 as=3.31 ps=23.1 w=22.9 l=3.5
X7 a_12478_n2286# a_11778_n2374# a_11720_n2286# a_n13396_n2460# sky130_fd_pr__nfet_01v8_lvt ad=3.31 pd=23.1 as=3.31 ps=23.1 w=22.9 l=3.5
X8 a_n9504_n2286# a_n10204_n2374# a_n10262_n2286# a_n13396_n2460# sky130_fd_pr__nfet_01v8_lvt ad=3.31 pd=23.1 as=3.31 ps=23.1 w=22.9 l=3.5
X9 a_1108_n2286# a_408_n2374# a_350_n2286# a_n13396_n2460# sky130_fd_pr__nfet_01v8_lvt ad=3.31 pd=23.1 as=3.31 ps=23.1 w=22.9 l=3.5
X10 a_n7988_n2286# a_n8688_n2374# a_n8746_n2286# a_n13396_n2460# sky130_fd_pr__nfet_01v8_lvt ad=3.31 pd=23.1 as=3.31 ps=23.1 w=22.9 l=3.5
X11 a_9446_n2286# a_8746_n2374# a_8688_n2286# a_n13396_n2460# sky130_fd_pr__nfet_01v8_lvt ad=3.31 pd=23.1 as=3.31 ps=23.1 w=22.9 l=3.5
X12 a_n1166_n2286# a_n1866_n2374# a_n1924_n2286# a_n13396_n2460# sky130_fd_pr__nfet_01v8_lvt ad=3.31 pd=23.1 as=3.31 ps=23.1 w=22.9 l=3.5
X13 a_11720_n2286# a_11020_n2374# a_10962_n2286# a_n13396_n2460# sky130_fd_pr__nfet_01v8_lvt ad=3.31 pd=23.1 as=3.31 ps=23.1 w=22.9 l=3.5
X14 a_2624_n2286# a_1924_n2374# a_1866_n2286# a_n13396_n2460# sky130_fd_pr__nfet_01v8_lvt ad=3.31 pd=23.1 as=3.31 ps=23.1 w=22.9 l=3.5
X15 a_n5714_n2286# a_n6414_n2374# a_n6472_n2286# a_n13396_n2460# sky130_fd_pr__nfet_01v8_lvt ad=3.31 pd=23.1 as=3.31 ps=23.1 w=22.9 l=3.5
X16 a_n3440_n2286# a_n4140_n2374# a_n4198_n2286# a_n13396_n2460# sky130_fd_pr__nfet_01v8_lvt ad=3.31 pd=23.1 as=3.31 ps=23.1 w=22.9 l=3.5
X17 a_n2682_n2286# a_n3382_n2374# a_n3440_n2286# a_n13396_n2460# sky130_fd_pr__nfet_01v8_lvt ad=3.31 pd=23.1 as=3.31 ps=23.1 w=22.9 l=3.5
X18 a_4140_n2286# a_3440_n2374# a_3382_n2286# a_n13396_n2460# sky130_fd_pr__nfet_01v8_lvt ad=3.31 pd=23.1 as=3.31 ps=23.1 w=22.9 l=3.5
X19 a_1866_n2286# a_1166_n2374# a_1108_n2286# a_n13396_n2460# sky130_fd_pr__nfet_01v8_lvt ad=3.31 pd=23.1 as=3.31 ps=23.1 w=22.9 l=3.5
X20 a_8688_n2286# a_7988_n2374# a_7930_n2286# a_n13396_n2460# sky130_fd_pr__nfet_01v8_lvt ad=3.31 pd=23.1 as=3.31 ps=23.1 w=22.9 l=3.5
X21 a_10962_n2286# a_10262_n2374# a_10204_n2286# a_n13396_n2460# sky130_fd_pr__nfet_01v8_lvt ad=3.31 pd=23.1 as=3.31 ps=23.1 w=22.9 l=3.5
X22 a_n11020_n2286# a_n11720_n2374# a_n11778_n2286# a_n13396_n2460# sky130_fd_pr__nfet_01v8_lvt ad=3.31 pd=23.1 as=3.31 ps=23.1 w=22.9 l=3.5
X23 a_n10262_n2286# a_n10962_n2374# a_n11020_n2286# a_n13396_n2460# sky130_fd_pr__nfet_01v8_lvt ad=3.31 pd=23.1 as=3.31 ps=23.1 w=22.9 l=3.5
X24 a_n4956_n2286# a_n5656_n2374# a_n5714_n2286# a_n13396_n2460# sky130_fd_pr__nfet_01v8_lvt ad=3.31 pd=23.1 as=3.31 ps=23.1 w=22.9 l=3.5
X25 a_6414_n2286# a_5714_n2374# a_5656_n2286# a_n13396_n2460# sky130_fd_pr__nfet_01v8_lvt ad=3.31 pd=23.1 as=3.31 ps=23.1 w=22.9 l=3.5
X26 a_n12536_n2286# a_n13236_n2374# a_n13294_n2286# a_n13396_n2460# sky130_fd_pr__nfet_01v8_lvt ad=3.31 pd=23.1 as=6.63 ps=46.3 w=22.9 l=3.5
X27 a_3382_n2286# a_2682_n2374# a_2624_n2286# a_n13396_n2460# sky130_fd_pr__nfet_01v8_lvt ad=3.31 pd=23.1 as=3.31 ps=23.1 w=22.9 l=3.5
X28 a_n6472_n2286# a_n7172_n2374# a_n7230_n2286# a_n13396_n2460# sky130_fd_pr__nfet_01v8_lvt ad=3.31 pd=23.1 as=3.31 ps=23.1 w=22.9 l=3.5
X29 a_7930_n2286# a_7230_n2374# a_7172_n2286# a_n13396_n2460# sky130_fd_pr__nfet_01v8_lvt ad=3.31 pd=23.1 as=3.31 ps=23.1 w=22.9 l=3.5
X30 a_n408_n2286# a_n1108_n2374# a_n1166_n2286# a_n13396_n2460# sky130_fd_pr__nfet_01v8_lvt ad=3.31 pd=23.1 as=3.31 ps=23.1 w=22.9 l=3.5
X31 a_13236_n2286# a_12536_n2374# a_12478_n2286# a_n13396_n2460# sky130_fd_pr__nfet_01v8_lvt ad=6.63 pd=46.3 as=3.31 ps=23.1 w=22.9 l=3.5
X32 a_n7230_n2286# a_n7930_n2374# a_n7988_n2286# a_n13396_n2460# sky130_fd_pr__nfet_01v8_lvt ad=3.31 pd=23.1 as=3.31 ps=23.1 w=22.9 l=3.5
X33 a_n4198_n2286# a_n4898_n2374# a_n4956_n2286# a_n13396_n2460# sky130_fd_pr__nfet_01v8_lvt ad=3.31 pd=23.1 as=3.31 ps=23.1 w=22.9 l=3.5
X34 a_5656_n2286# a_4956_n2374# a_4898_n2286# a_n13396_n2460# sky130_fd_pr__nfet_01v8_lvt ad=3.31 pd=23.1 as=3.31 ps=23.1 w=22.9 l=3.5
.ends

.subckt diffamp PCAS REF PIX GM_BIAS VDD VSS OUT
XXM1 m1_35096_n15744# m1_32048_n23188# VDD m1_32048_n23188# VDD VDD m1_32048_n23188#
+ m1_35096_n15744# sky130_fd_pr__pfet_01v8_lvt_79GNHJ
XXM2 OUT VDD PCAS m1_32020_n12120# m1_32020_n12120# OUT PCAS PCAS sky130_fd_pr__pfet_01v8_lvt_RM6ABE
XXM3 m1_31296_n26048# m1_31296_n26048# GM_BIAS VSS GM_BIAS VSS sky130_fd_pr__nfet_01v8_lvt_9U978C
XXM4 m1_32048_n23188# VDD PCAS m1_35096_n15744# m1_35096_n15744# m1_32048_n23188#
+ PCAS PCAS sky130_fd_pr__pfet_01v8_lvt_RM6ABE
XXM5 PIX PIX PIX PIX PIX m1_31296_n26048# PIX PIX PIX PIX m1_31296_n26048# OUT PIX
+ m1_31296_n26048# PIX PIX PIX PIX PIX PIX PIX PIX PIX m1_31296_n26048# PIX OUT m1_31296_n26048#
+ PIX PIX PIX OUT m1_31296_n26048# PIX PIX OUT OUT m1_31296_n26048# PIX OUT PIX m1_31296_n26048#
+ m1_31296_n26048# m1_31296_n26048# PIX OUT OUT OUT m1_31296_n26048# m1_31296_n26048#
+ OUT m1_31296_n26048# OUT m1_31296_n26048# m1_31296_n26048# OUT PIX OUT m1_31296_n26048#
+ PIX PIX VSS OUT m1_31296_n26048# OUT OUT OUT m1_31296_n26048# PIX PIX OUT PIX PIX
+ sky130_fd_pr__nfet_01v8_lvt_RM3WAQ
XXM6 REF REF REF REF REF m1_32048_n23188# REF REF REF REF m1_32048_n23188# m1_31296_n26048#
+ REF m1_32048_n23188# REF REF REF REF REF REF REF REF REF m1_32048_n23188# REF m1_31296_n26048#
+ m1_32048_n23188# REF REF REF m1_31296_n26048# m1_32048_n23188# REF REF m1_31296_n26048#
+ m1_31296_n26048# m1_32048_n23188# REF m1_31296_n26048# REF m1_32048_n23188# m1_32048_n23188#
+ m1_32048_n23188# REF m1_31296_n26048# m1_31296_n26048# m1_31296_n26048# m1_32048_n23188#
+ m1_32048_n23188# m1_31296_n26048# m1_32048_n23188# m1_31296_n26048# m1_32048_n23188#
+ m1_32048_n23188# m1_31296_n26048# REF m1_31296_n26048# m1_32048_n23188# REF REF
+ VSS m1_31296_n26048# m1_32048_n23188# m1_31296_n26048# m1_31296_n26048# m1_31296_n26048#
+ m1_32048_n23188# REF REF m1_31296_n26048# REF REF sky130_fd_pr__nfet_01v8_lvt_RM3WAQ
XXM8 VDD m1_32048_n23188# m1_32020_n12120# m1_32048_n23188# m1_32020_n12120# VDD m1_32048_n23188#
+ VDD sky130_fd_pr__pfet_01v8_lvt_79GNHJ
.ends

.subckt sky130_fd_pr__nfet_01v8_lvt_6LX62X a_35_n100# a_n35_n188# a_n195_n274# a_n93_n100#
X0 a_35_n100# a_n35_n188# a_n93_n100# a_n195_n274# sky130_fd_pr__nfet_01v8_lvt ad=0.29 pd=2.58 as=0.29 ps=2.58 w=1 l=0.35
.ends

.subckt sky130_fd_pr__pfet_01v8_lvt_4QFWD3 a_n93_n200# a_n35_n297# a_35_n200# w_n231_n419#
X0 a_35_n200# a_n35_n297# a_n93_n200# w_n231_n419# sky130_fd_pr__pfet_01v8_lvt ad=0.58 pd=4.58 as=0.58 ps=4.58 w=2 l=0.35
.ends

.subckt not out in VDD VSS
XXM1 out in VSS VSS sky130_fd_pr__nfet_01v8_lvt_6LX62X
XXM10 VDD in out VDD sky130_fd_pr__pfet_01v8_lvt_4QFWD3
.ends

.subckt sky130_fd_pr__pfet_01v8_lvt_ER7S26 a_n221_n4000# a_93_n4097# a_35_n4000# a_291_n4000#
+ a_n349_n4000# a_221_n4097# a_n163_n4097# w_n487_n4219# a_163_n4000# a_n93_n4000#
+ a_n291_n4097# a_n35_n4097#
X0 a_163_n4000# a_93_n4097# a_35_n4000# w_n487_n4219# sky130_fd_pr__pfet_01v8_lvt ad=5.8 pd=40.3 as=5.8 ps=40.3 w=40 l=0.35
X1 a_35_n4000# a_n35_n4097# a_n93_n4000# w_n487_n4219# sky130_fd_pr__pfet_01v8_lvt ad=5.8 pd=40.3 as=5.8 ps=40.3 w=40 l=0.35
X2 a_n221_n4000# a_n291_n4097# a_n349_n4000# w_n487_n4219# sky130_fd_pr__pfet_01v8_lvt ad=5.8 pd=40.3 as=11.6 ps=80.6 w=40 l=0.35
X3 a_n93_n4000# a_n163_n4097# a_n221_n4000# w_n487_n4219# sky130_fd_pr__pfet_01v8_lvt ad=5.8 pd=40.3 as=5.8 ps=40.3 w=40 l=0.35
X4 a_291_n4000# a_221_n4097# a_163_n4000# w_n487_n4219# sky130_fd_pr__pfet_01v8_lvt ad=11.6 pd=80.6 as=5.8 ps=40.3 w=40 l=0.35
.ends

.subckt sky130_fd_pr__nfet_01v8_lvt_4833E6 a_n1016_n4000# a_1016_n4088# G D B a_n958_n4088#
+ a_300_n4000# a_n1616_n4088# S a_358_n4088# a_n358_n4000# a_958_n4000#
X0 a_n1016_n4000# a_n1616_n4088# D B sky130_fd_pr__nfet_01v8_lvt ad=5.8 pd=40.3 as=11.6 ps=80.6 w=40 l=3
X1 a_n358_n4000# a_n958_n4088# a_n1016_n4000# B sky130_fd_pr__nfet_01v8_lvt ad=5.8 pd=40.3 as=5.8 ps=40.3 w=40 l=3
X2 S a_1016_n4088# a_958_n4000# B sky130_fd_pr__nfet_01v8_lvt ad=11.6 pd=80.6 as=5.8 ps=40.3 w=40 l=3
X3 a_300_n4000# G a_n358_n4000# B sky130_fd_pr__nfet_01v8_lvt ad=5.8 pd=40.3 as=5.8 ps=40.3 w=40 l=3
X4 a_958_n4000# a_358_n4088# a_300_n4000# B sky130_fd_pr__nfet_01v8_lvt ad=5.8 pd=40.3 as=5.8 ps=40.3 w=40 l=3
.ends

.subckt switch in out toggle VDD VSS
Xx1 x1/out toggle VDD VSS not
XXM26 in x1/out in in out x1/out x1/out out out out x1/out x1/out sky130_fd_pr__pfet_01v8_lvt_ER7S26
XXM1 out toggle toggle in VSS toggle out toggle out toggle in in sky130_fd_pr__nfet_01v8_lvt_4833E6
.ends

.subckt sky130_fd_pr__nfet_01v8_lvt_T4BG7Y a_200_n5000# a_n360_n5174# a_n200_n5088#
+ a_n258_n5000#
X0 a_200_n5000# a_n200_n5088# a_n258_n5000# a_n360_n5174# sky130_fd_pr__nfet_01v8_lvt ad=14.5 pd=101 as=14.5 ps=101 w=50 l=2
.ends

.subckt sky130_fd_pr__pfet_01v8_lvt_B5Z988 a_n1000_n1097# w_n1196_n1219# a_1000_n1000#
+ a_n1058_n1000#
X0 a_1000_n1000# a_n1000_n1097# a_n1058_n1000# w_n1196_n1219# sky130_fd_pr__pfet_01v8_lvt ad=2.9 pd=20.6 as=2.9 ps=20.6 w=10 l=10
.ends

.subckt curr_mir Vtune VDD Ib VSS
XXM1 VSS VSS m1_1036_6332# m1_1036_6332# sky130_fd_pr__nfet_01v8_lvt_T4BG7Y
XXM2 VSS VSS m1_1036_6332# Ib sky130_fd_pr__nfet_01v8_lvt_T4BG7Y
XXM10 Vtune VDD VDD m1_1036_6332# sky130_fd_pr__pfet_01v8_lvt_B5Z988
.ends

.subckt sky130_fd_pr__pfet_01v8_lvt_CEE7V5 G D B a_358_n597# a_n300_n597# a_958_n500#
+ S a_300_n500#
X0 S G D B sky130_fd_pr__pfet_01v8_lvt ad=0.725 pd=5.29 as=1.45 ps=10.6 w=5 l=3
X1 a_300_n500# a_n300_n597# S B sky130_fd_pr__pfet_01v8_lvt ad=0.725 pd=5.29 as=0.725 ps=5.29 w=5 l=3
X2 a_958_n500# a_358_n597# a_300_n500# B sky130_fd_pr__pfet_01v8_lvt ad=1.45 pd=10.6 as=0.725 ps=5.29 w=5 l=3
.ends

.subckt sky130_fd_pr__pfet_01v8_lvt_8WRJS5 a_29_n347# G D B a_629_n250# a_n629_n347#
+ a_687_n347# a_n29_n250# a_1287_n250# S
X0 a_1287_n250# a_687_n347# a_629_n250# B sky130_fd_pr__pfet_01v8_lvt ad=0.725 pd=5.58 as=0.363 ps=2.79 w=2.5 l=3
X1 a_629_n250# a_29_n347# a_n29_n250# B sky130_fd_pr__pfet_01v8_lvt ad=0.363 pd=2.79 as=0.363 ps=2.79 w=2.5 l=3
X2 a_n29_n250# a_n629_n347# S B sky130_fd_pr__pfet_01v8_lvt ad=0.363 pd=2.79 as=0.363 ps=2.79 w=2.5 l=3
X3 S G D B sky130_fd_pr__pfet_01v8_lvt ad=0.363 pd=2.79 as=0.725 ps=5.58 w=2.5 l=3
.ends

.subckt sky130_fd_pr__nfet_01v8_lvt_HZEGLD a_958_n1600# G a_1016_n1688# D B a_n958_n1688#
+ a_1616_n1600# a_300_n1600# a_n300_n1688# S a_358_n1688# a_n358_n1600#
X0 a_300_n1600# a_n300_n1688# a_n358_n1600# B sky130_fd_pr__nfet_01v8_lvt ad=2.32 pd=16.3 as=2.32 ps=16.3 w=16 l=3
X1 a_958_n1600# a_358_n1688# a_300_n1600# B sky130_fd_pr__nfet_01v8_lvt ad=2.32 pd=16.3 as=2.32 ps=16.3 w=16 l=3
X2 S G D B sky130_fd_pr__nfet_01v8_lvt ad=2.32 pd=16.3 as=4.64 ps=32.6 w=16 l=3
X3 a_n358_n1600# a_n958_n1688# S B sky130_fd_pr__nfet_01v8_lvt ad=2.32 pd=16.3 as=2.32 ps=16.3 w=16 l=3
X4 a_1616_n1600# a_1016_n1688# a_958_n1600# B sky130_fd_pr__nfet_01v8_lvt ad=4.64 pd=32.6 as=2.32 ps=16.3 w=16 l=3
.ends

.subckt sky130_fd_pr__nfet_01v8_lvt_RFVHWA G D B S
X0 S G D B sky130_fd_pr__nfet_01v8_lvt ad=1.45 pd=10.6 as=1.45 ps=10.6 w=5 l=3
.ends

.subckt sky130_fd_pr__nfet_01v8_lvt_7233E2 G D B S
X0 S G D B sky130_fd_pr__nfet_01v8_lvt ad=2.32 pd=16.6 as=2.32 ps=16.6 w=8 l=3
.ends

.subckt sky130_fd_pr__pfet_01v8_lvt_CEAZV5 G a_29_n597# D B a_629_n500# S
X0 a_629_n500# a_29_n597# S B sky130_fd_pr__pfet_01v8_lvt ad=1.45 pd=10.6 as=0.725 ps=5.29 w=5 l=3
X1 S G D B sky130_fd_pr__pfet_01v8_lvt ad=0.725 pd=5.29 as=1.45 ps=10.6 w=5 l=3
.ends

.subckt sky130_fd_pr__cap_mim_m3_1_ZYFHHD c0 c1
X0 c0 c1 sky130_fd_pr__cap_mim_m3_1 l=4 w=2
.ends

.subckt sky130_fd_pr__pfet_01v8_lvt_LEXMNV G D a_n958_n2097# w_n1812_n2219# a_n358_n2000#
+ a_958_n2000# a_n300_n2097# a_1616_n2000# a_358_n2097# S a_300_n2000# a_1016_n2097#
X0 S G D w_n1812_n2219# sky130_fd_pr__pfet_01v8_lvt ad=2.9 pd=20.3 as=5.8 ps=40.6 w=20 l=3
X1 a_n358_n2000# a_n958_n2097# S w_n1812_n2219# sky130_fd_pr__pfet_01v8_lvt ad=2.9 pd=20.3 as=2.9 ps=20.3 w=20 l=3
X2 a_1616_n2000# a_1016_n2097# a_958_n2000# w_n1812_n2219# sky130_fd_pr__pfet_01v8_lvt ad=5.8 pd=40.6 as=2.9 ps=20.3 w=20 l=3
X3 a_300_n2000# a_n300_n2097# a_n358_n2000# w_n1812_n2219# sky130_fd_pr__pfet_01v8_lvt ad=2.9 pd=20.3 as=2.9 ps=20.3 w=20 l=3
X4 a_958_n2000# a_358_n2097# a_300_n2000# w_n1812_n2219# sky130_fd_pr__pfet_01v8_lvt ad=2.9 pd=20.3 as=2.9 ps=20.3 w=20 l=3
.ends

.subckt opamp opbias inp inn VDD out VSS
XXM14 inn XM5/G VDD inn inn XM26/D XM26/D XM5/G sky130_fd_pr__pfet_01v8_lvt_CEE7V5
XXM15 inp XM2/G VDD inp inp XM26/D XM26/D XM2/G sky130_fd_pr__pfet_01v8_lvt_CEE7V5
XXM26 opbias opbias XM26/D VDD VDD opbias opbias XM26/D XM26/D VDD sky130_fd_pr__pfet_01v8_lvt_8WRJS5
XXM17 out XM2/G XM2/G out VSS XM2/G VSS VSS XM2/G VSS XM2/G out sky130_fd_pr__nfet_01v8_lvt_HZEGLD
XXM19 XM5/G XM5/G VSS VSS sky130_fd_pr__nfet_01v8_lvt_RFVHWA
XXM2 XM2/G XM4/G VSS VSS sky130_fd_pr__nfet_01v8_lvt_7233E2
XXM3 XM4/G XM4/G XM4/G VDD XM4/G VDD sky130_fd_pr__pfet_01v8_lvt_CEAZV5
XXM4 XM4/G XM4/G XM5/D VDD XM5/D VDD sky130_fd_pr__pfet_01v8_lvt_CEAZV5
XXM5 XM5/G XM5/D VSS VSS sky130_fd_pr__nfet_01v8_lvt_7233E2
XXC1 XM5/D out sky130_fd_pr__cap_mim_m3_1_ZYFHHD
XXC2 out XM2/G sky130_fd_pr__cap_mim_m3_1_ZYFHHD
XXM20 XM5/G XM2/G VSS VSS sky130_fd_pr__nfet_01v8_lvt_RFVHWA
XXM10 XM5/D out XM5/D VDD out out XM5/D VDD XM5/D VDD VDD XM5/D sky130_fd_pr__pfet_01v8_lvt_LEXMNV
.ends

.subckt sky130_fd_pr__cap_mim_m3_1_3HBNLG c0 c1
X0 c0 c1 sky130_fd_pr__cap_mim_m3_1 l=30 w=30
.ends

.subckt integrator sw4 sw3 rst sw2 sw1 opbias en Vtune intin VDD intout VSS
Xx1 x9/in x1/out sw1 VDD VSS switch
Xx3 Vtune VDD intin VSS curr_mir
Xx2 intin x9/in x7/out VDD VSS switch
Xx4 opbias VSS x9/in VDD intout VSS opamp
Xx5 x9/in intout rst VDD VSS switch
Xx6 intin VSS en VDD VSS switch
Xx7 x7/out en VDD VSS not
Xx8 x9/in x8/out sw4 VDD VSS switch
Xx9 x9/in x9/out sw2 VDD VSS switch
XXC1 x1/out intout sky130_fd_pr__cap_mim_m3_1_3HBNLG
XXC2 x9/out intout sky130_fd_pr__cap_mim_m3_1_3HBNLG
Xx10 x9/in XC3/c0 sw3 VDD VSS switch
XXC3 XC3/c0 intout sky130_fd_pr__cap_mim_m3_1_3HBNLG
XXC4 x8/out intout sky130_fd_pr__cap_mim_m3_1_3HBNLG
.ends

.subckt mux2_1 SEL0 IN1 IN0 VDD OUT VSS
Xx1 x1/out SEL0 VDD VSS not
Xx5 IN0 OUT x1/out VDD VSS switch
Xx6 IN1 OUT SEL0 VDD VSS switch
.ends

.subckt buffer opbias in out VDD VSS
Xx1 opbias in out VDD out VSS opamp
.ends

.subckt ColROs VDD AIn0 AIn1 AIn2 AIn3 AIn4 AIn5 REG0 REG1 REG2 REG3 REG4 REG5 REG6
+ AOut VSS
Xx1 AIn3 AIn0 AIn1 AIn2 VDD VSS x3/IN0 diffamp
Xx2 REG5 REG4 REG1 REG3 REG2 AIn4 REG0 AIn5 x3/IN0 VDD x3/IN1 VSS integrator
Xx3 REG6 x3/IN1 x3/IN0 VDD x7/in VSS mux2_1
Xx7 AIn4 x7/in AOut VDD VSS buffer
.ends

.subckt MulColROs VDD AOut[3] AOut[2] AOut[1] AOut[0] REG6 REG5 REG4 REG3 REG2 REG1
+ REG0 AIn5 AIn4 AIn3 AIn2 AIn0 AIn[3] AIn[2] AIn[1] AIn[0] VSS
XxMulColROs[3] VDD AIn0 AIn[3] AIn2 AIn3 AIn4 AIn5 REG0 REG1 REG2 REG3 REG4 REG5 REG6
+ AOut[3] VSS ColROs
XxMulColROs[2] VDD AIn0 AIn[2] AIn2 AIn3 AIn4 AIn5 REG0 REG1 REG2 REG3 REG4 REG5 REG6
+ AOut[2] VSS ColROs
XxMulColROs[1] VDD AIn0 AIn[1] AIn2 AIn3 AIn4 AIn5 REG0 REG1 REG2 REG3 REG4 REG5 REG6
+ AOut[1] VSS ColROs
XxMulColROs[0] VDD AIn0 AIn[0] AIn2 AIn3 AIn4 AIn5 REG0 REG1 REG2 REG3 REG4 REG5 REG6
+ AOut[0] VSS ColROs
.ends

.subckt analog_switch VOUT VIN EN ENB VDD3v3 VGND
X0 VOUT EN VIN VGND sky130_fd_pr__nfet_03v3_nvt ad=10 pd=22 as=10 ps=22 w=10 l=0.5
X1 VIN ENB VOUT VDD3v3 sky130_fd_pr__pfet_g5v0d10v5 ad=5.25 pd=8.5 as=7 ps=16 w=7 l=0.5
X2 VOUT ENB VIN VDD3v3 sky130_fd_pr__pfet_g5v0d10v5 ad=7 pd=16 as=5.25 ps=8.5 w=7 l=0.5
.ends

.subckt analog_mux VGND VPWR VIN1 VOUT EN SELECT VIN0
Xanalog_switch_0 VOUT VIN1 EN1 EN1 VPWR VGND analog_switch
Xanalog_switch_1 VOUT VIN0 EN0 ENB0 VPWR VGND analog_switch
X0 EN1 EN VPWR VPWR sky130_fd_pr__pfet_g5v0d10v5 ad=0.25 pd=1.5 as=0.4 ps=1.8 w=1 l=0.5
X1 VPWR EN ENB0 VPWR sky130_fd_pr__pfet_g5v0d10v5 ad=0.4 pd=1.8 as=0.25 ps=1.5 w=1 l=0.5
X2 a_1960_4640# EN EN1 VGND sky130_fd_pr__nfet_03v3_nvt ad=0.175 pd=1.2 as=0.28 ps=1.5 w=0.7 l=0.5
X3 a_1960_n4840# SELECT ENB0 VGND sky130_fd_pr__nfet_03v3_nvt ad=0.175 pd=1.2 as=0.28 ps=2.2 w=0.7 l=0.5
X4 VPWR SELECT EN1 VPWR sky130_fd_pr__pfet_g5v0d10v5 ad=0.25 pd=1.5 as=0.25 ps=1.5 w=1 l=0.5
X5 ENB0 SELECT VPWR VPWR sky130_fd_pr__pfet_g5v0d10v5 ad=0.25 pd=1.5 as=0.4 ps=2.8 w=1 l=0.5
X6 EN0 ENB0 VGND VGND sky130_fd_pr__nfet_03v3_nvt ad=0.28 pd=2.2 as=0.28 ps=1.5 w=0.7 l=0.5
X7 VGND SELECT a_1960_4640# VGND sky130_fd_pr__nfet_03v3_nvt ad=0.175 pd=1.2 as=0.175 ps=1.2 w=0.7 l=0.5
X8 VPWR EN1 EN1 VPWR sky130_fd_pr__pfet_g5v0d10v5 ad=0.4 pd=1.8 as=0.4 ps=2.8 w=1 l=0.5
X9 SELECT SELECT VPWR VPWR sky130_fd_pr__pfet_g5v0d10v5 ad=0.4 pd=2.8 as=0.25 ps=1.5 w=1 l=0.5
X10 EN0 ENB0 VPWR VPWR sky130_fd_pr__pfet_g5v0d10v5 ad=0.4 pd=2.8 as=0.4 ps=1.8 w=1 l=0.5
X11 VGND EN a_1960_n4840# VGND sky130_fd_pr__nfet_03v3_nvt ad=0.28 pd=1.5 as=0.175 ps=1.2 w=0.7 l=0.5
X12 EN1 EN1 VGND VGND sky130_fd_pr__nfet_03v3_nvt ad=0.28 pd=1.5 as=0.28 ps=2.2 w=0.7 l=0.5
X13 SELECT SELECT VGND VGND sky130_fd_pr__nfet_03v3_nvt ad=0.28 pd=2.2 as=0.175 ps=1.2 w=0.7 l=0.5
.ends

.subckt sky130_fd_pr__nfet_01v8_GWAZJ9 a_15_n130# a_63_n42# a_n177_n130# a_255_n42#
+ a_n129_n42# a_111_64# a_n321_n42# a_159_n42# a_n81_64# a_n273_64# a_351_n42# a_207_n130#
+ a_303_64# a_n33_n42# a_n369_n130# a_n225_n42# a_n413_n42# VSUBS
X0 a_63_n42# a_15_n130# a_n33_n42# VSUBS sky130_fd_pr__nfet_01v8 ad=0.0693 pd=0.75 as=0.0693 ps=0.75 w=0.42 l=0.15
X1 a_n33_n42# a_n81_64# a_n129_n42# VSUBS sky130_fd_pr__nfet_01v8 ad=0.0693 pd=0.75 as=0.0693 ps=0.75 w=0.42 l=0.15
X2 a_351_n42# a_303_64# a_255_n42# VSUBS sky130_fd_pr__nfet_01v8 ad=0.13 pd=1.46 as=0.0693 ps=0.75 w=0.42 l=0.15
X3 a_159_n42# a_111_64# a_63_n42# VSUBS sky130_fd_pr__nfet_01v8 ad=0.0693 pd=0.75 as=0.0693 ps=0.75 w=0.42 l=0.15
X4 a_255_n42# a_207_n130# a_159_n42# VSUBS sky130_fd_pr__nfet_01v8 ad=0.0693 pd=0.75 as=0.0693 ps=0.75 w=0.42 l=0.15
X5 a_n321_n42# a_n369_n130# a_n413_n42# VSUBS sky130_fd_pr__nfet_01v8 ad=0.0693 pd=0.75 as=0.13 ps=1.46 w=0.42 l=0.15
X6 a_n225_n42# a_n273_64# a_n321_n42# VSUBS sky130_fd_pr__nfet_01v8 ad=0.0693 pd=0.75 as=0.0693 ps=0.75 w=0.42 l=0.15
X7 a_n129_n42# a_n177_n130# a_n225_n42# VSUBS sky130_fd_pr__nfet_01v8 ad=0.0693 pd=0.75 as=0.0693 ps=0.75 w=0.42 l=0.15
.ends

.subckt sky130_fd_pr__pfet_01v8_ACB9FB w_n449_n142# a_63_n42# a_n369_n139# a_255_n42#
+ a_n81_73# a_n273_73# a_n129_n42# a_15_n139# a_303_73# a_n177_n139# a_n321_n42# a_159_n42#
+ a_351_n42# a_n33_n42# a_n225_n42# a_n413_n42# a_111_73# a_207_n139#
X0 a_n33_n42# a_n81_73# a_n129_n42# w_n449_n142# sky130_fd_pr__pfet_01v8 ad=0.0693 pd=0.75 as=0.0693 ps=0.75 w=0.42 l=0.15
X1 a_351_n42# a_303_73# a_255_n42# w_n449_n142# sky130_fd_pr__pfet_01v8 ad=0.13 pd=1.46 as=0.0693 ps=0.75 w=0.42 l=0.15
X2 a_159_n42# a_111_73# a_63_n42# w_n449_n142# sky130_fd_pr__pfet_01v8 ad=0.0693 pd=0.75 as=0.0693 ps=0.75 w=0.42 l=0.15
X3 a_255_n42# a_207_n139# a_159_n42# w_n449_n142# sky130_fd_pr__pfet_01v8 ad=0.0693 pd=0.75 as=0.0693 ps=0.75 w=0.42 l=0.15
X4 a_n321_n42# a_n369_n139# a_n413_n42# w_n449_n142# sky130_fd_pr__pfet_01v8 ad=0.0693 pd=0.75 as=0.13 ps=1.46 w=0.42 l=0.15
X5 a_n225_n42# a_n273_73# a_n321_n42# w_n449_n142# sky130_fd_pr__pfet_01v8 ad=0.0693 pd=0.75 as=0.0693 ps=0.75 w=0.42 l=0.15
X6 a_n129_n42# a_n177_n139# a_n225_n42# w_n449_n142# sky130_fd_pr__pfet_01v8 ad=0.0693 pd=0.75 as=0.0693 ps=0.75 w=0.42 l=0.15
X7 a_63_n42# a_15_n139# a_n33_n42# w_n449_n142# sky130_fd_pr__pfet_01v8 ad=0.0693 pd=0.75 as=0.0693 ps=0.75 w=0.42 l=0.15
.ends

.subckt sky130_fd_pr__pfet_01v8_TM5SY6 w_n246_n269# a_n108_n50# a_50_n50# a_n50_n147#
X0 a_50_n50# a_n50_n147# a_n108_n50# w_n246_n269# sky130_fd_pr__pfet_01v8 ad=0.145 pd=1.58 as=0.145 ps=1.58 w=0.5 l=0.5
.ends

.subckt sky130_fd_pr__nfet_01v8_SMGLWN a_n50_n138# a_n210_n224# a_n108_n50# a_50_n50#
X0 a_50_n50# a_n50_n138# a_n108_n50# a_n210_n224# sky130_fd_pr__nfet_01v8 ad=0.145 pd=1.58 as=0.145 ps=1.58 w=0.5 l=0.5
.ends

.subckt sky130_fd_pr__nfet_01v8_PVEW3M a_n210_n274# a_50_n100# a_n108_n100# a_n50_n188#
X0 a_50_n100# a_n50_n188# a_n108_n100# a_n210_n274# sky130_fd_pr__nfet_01v8 ad=0.29 pd=2.58 as=0.29 ps=2.58 w=1 l=0.5
.ends

.subckt cmfb XM9/a_n50_n188# m1_541_1279# m1_904_1580# m1_1973_1162# Vdd m1_3238_1273#
+ gnd
XXM12 Vdd gnd m1_604_1671# m1_904_1580# sky130_fd_pr__pfet_01v8_TM5SY6
XXM14 m1_3238_1273# gnd Vcm Vdd sky130_fd_pr__nfet_01v8_SMGLWN
XXM13 m1_3238_1273# gnd Vcm Vdd sky130_fd_pr__nfet_01v8_SMGLWN
XXM15 Vdd Vcm gnd m1_3238_1273# sky130_fd_pr__pfet_01v8_TM5SY6
XXM16 Vdd Vcm gnd m1_3238_1273# sky130_fd_pr__pfet_01v8_TM5SY6
XXM18 Vdd Vdd Vdd Vdd sky130_fd_pr__pfet_01v8_TM5SY6
XXM1 gnd gnd gnd gnd sky130_fd_pr__nfet_01v8_SMGLWN
XXM2 gnd gnd gnd gnd sky130_fd_pr__nfet_01v8_SMGLWN
XXM3 Vdd Vdd Vdd Vdd sky130_fd_pr__pfet_01v8_TM5SY6
XXM4 Vdd gnd m1_604_1671# m1_541_1279# sky130_fd_pr__pfet_01v8_TM5SY6
XXM5 Vdd Vdd m1_1719_1576# m1_1719_1576# sky130_fd_pr__pfet_01v8_TM5SY6
XXM6 Vdd m1_1973_1162# Vdd m1_1719_1576# sky130_fd_pr__pfet_01v8_TM5SY6
XXM7 m1_604_1671# gnd m1_1600_1134# m1_1719_1576# sky130_fd_pr__nfet_01v8_SMGLWN
XXM9 gnd gnd m1_1600_1134# XM9/a_n50_n188# sky130_fd_pr__nfet_01v8_PVEW3M
XXM8 Vcm gnd m1_1973_1162# m1_1600_1134# sky130_fd_pr__nfet_01v8_SMGLWN
XXM10 m1_541_1279# gnd Vdd m1_604_1671# sky130_fd_pr__nfet_01v8_SMGLWN
XXM11 m1_904_1580# gnd Vdd m1_604_1671# sky130_fd_pr__nfet_01v8_SMGLWN
.ends

.subckt sky130_fd_pr__pfet_01v8_lvt_TM5SY6 w_n246_n269# a_n108_n50# a_50_n50# a_n50_n147#
X0 a_50_n50# a_n50_n147# a_n108_n50# w_n246_n269# sky130_fd_pr__pfet_01v8_lvt ad=0.145 pd=1.58 as=0.145 ps=1.58 w=0.5 l=0.5
.ends

.subckt sky130_fd_pr__nfet_01v8_EJYG4R a_445_n69# a_n345_n69# a_n187_n69# a_287_n69#
+ a_29_n157# a_n129_n157# a_187_n157# a_n287_n157# a_345_n157# a_n445_n157# a_129_n69#
+ a_n605_n243# a_n29_n69# a_n503_n69#
X0 a_129_n69# a_29_n157# a_n29_n69# a_n605_n243# sky130_fd_pr__nfet_01v8 ad=0.145 pd=1.29 as=0.145 ps=1.29 w=1 l=0.5
X1 a_n187_n69# a_n287_n157# a_n345_n69# a_n605_n243# sky130_fd_pr__nfet_01v8 ad=0.145 pd=1.29 as=0.145 ps=1.29 w=1 l=0.5
X2 a_n345_n69# a_n445_n157# a_n503_n69# a_n605_n243# sky130_fd_pr__nfet_01v8 ad=0.145 pd=1.29 as=0.29 ps=2.58 w=1 l=0.5
X3 a_n29_n69# a_n129_n157# a_n187_n69# a_n605_n243# sky130_fd_pr__nfet_01v8 ad=0.145 pd=1.29 as=0.145 ps=1.29 w=1 l=0.5
X4 a_287_n69# a_187_n157# a_129_n69# a_n605_n243# sky130_fd_pr__nfet_01v8 ad=0.145 pd=1.29 as=0.145 ps=1.29 w=1 l=0.5
X5 a_445_n69# a_345_n157# a_287_n69# a_n605_n243# sky130_fd_pr__nfet_01v8 ad=0.29 pd=2.58 as=0.145 ps=1.29 w=1 l=0.5
.ends

.subckt sky130_fd_pr__cap_mim_m3_1_TNHPNJ m3_n2186_n1040# c1_n2146_n1000#
X0 c1_n2146_n1000# m3_n2186_n1040# sky130_fd_pr__cap_mim_m3_1 l=10 w=20
.ends

.subckt integrator_new1 m1_2972_2616# m1_2976_3044# m1_1624_2482# XM1/a_n50_n138#
+ m1_5204_2614# XM2/a_n50_n138# Vdd vo1 gnd
XXM18 Vdd Vdd m1_1624_2482# m1_2976_3044# sky130_fd_pr__pfet_01v8_lvt_TM5SY6
XXM1 XM1/a_n50_n138# gnd m1_2972_2616# m1_1624_2482# sky130_fd_pr__nfet_01v8_SMGLWN
Xsky130_fd_pr__pfet_01v8_lvt_TM5SY6_0 Vdd Vdd Vdd Vdd sky130_fd_pr__pfet_01v8_lvt_TM5SY6
XXM2 XM2/a_n50_n138# gnd vo1 m1_2972_2616# sky130_fd_pr__nfet_01v8_SMGLWN
XXM3 Vdd vo1 Vdd m1_2976_3044# sky130_fd_pr__pfet_01v8_lvt_TM5SY6
Xsky130_fd_pr__nfet_01v8_EJYG4R_0 m1_2972_2616# gnd m1_2972_2616# gnd m1_5204_2614#
+ m1_5204_2614# m1_5204_2614# m1_5204_2614# m1_5204_2614# m1_5204_2614# m1_2972_2616#
+ gnd gnd m1_2972_2616# sky130_fd_pr__nfet_01v8_EJYG4R
XXM6 Vdd Vdd Vdd Vdd sky130_fd_pr__pfet_01v8_lvt_TM5SY6
XXC3 vo1 m1_1624_2482# sky130_fd_pr__cap_mim_m3_1_TNHPNJ
Xsky130_fd_pr__nfet_01v8_SMGLWN_0 gnd gnd gnd gnd sky130_fd_pr__nfet_01v8_SMGLWN
Xsky130_fd_pr__nfet_01v8_SMGLWN_1 gnd gnd gnd gnd sky130_fd_pr__nfet_01v8_SMGLWN
.ends

.subckt integrator_full_new_compact integrator_new1_0/m1_2972_2616# m1_1946_216# m1_514_118#
+ m1_2968_n304# cmfb_0/Vdd integrator_new1_0/Vdd integrator_new1_0/XM1/a_n50_n138#
+ m1_3488_148# integrator_new1_0/XM2/a_n50_n138# integrator_new1_0/vo1 VSUBS
Xcmfb_0 m1_2968_n304# m1_514_118# integrator_new1_0/vo1 m1_1946_216# cmfb_0/Vdd m1_3488_148#
+ VSUBS cmfb
Xintegrator_new1_0 integrator_new1_0/m1_2972_2616# m1_1946_216# m1_514_118# integrator_new1_0/XM1/a_n50_n138#
+ m1_2968_n304# integrator_new1_0/XM2/a_n50_n138# integrator_new1_0/Vdd integrator_new1_0/vo1
+ VSUBS integrator_new1
.ends

.subckt sky130_fd_pr__nfet_01v8_GWXQMW a_15_n130# a_63_n42# a_n177_n130# a_255_n42#
+ a_n129_n42# a_111_64# a_n321_n42# a_159_n42# a_n81_64# a_n273_64# a_351_n42# a_207_n130#
+ a_303_64# a_n33_n42# a_n369_n130# a_n225_n42# a_n413_n42# VSUBS
X0 a_63_n42# a_15_n130# a_n33_n42# VSUBS sky130_fd_pr__nfet_01v8 ad=0.0693 pd=0.75 as=0.0693 ps=0.75 w=0.42 l=0.15
X1 a_n33_n42# a_n81_64# a_n129_n42# VSUBS sky130_fd_pr__nfet_01v8 ad=0.0693 pd=0.75 as=0.0693 ps=0.75 w=0.42 l=0.15